    26
        -50.45476262  Gyration_radius:  2.60387697754 Dipole_moment: 5.774
 S          -1.65103511574140    0.57006828427742   -1.96499572617659
O          -0.75654467727508    1.73573535499322   -2.04269398680829
O          -1.08018473494756   -0.58880689737067   -2.61956876223221
O          -2.07102329648731    0.34769557084512   -0.60233276705080
O          -2.94469742821890    0.95163366558272   -2.80451283711174
H          -2.66186194658738    0.77106201538966   -3.69560793125954
O          -0.03474460947480    0.63256095332667    2.63633362416140
H          -0.22986156898415    0.76228271274260    3.56435315593425
O           2.27558573474649   -0.20972691875333   -0.36377938844087
H           2.85879877980867   -0.15504410782928   -1.12132407390947
O          -1.27352698655914   -1.46472256735333    1.15162111169116
H          -1.77332784981882   -0.92689857691923    0.50657408161719
H          -1.00073040022348   -0.81880728088931    1.81723863549019
O           1.81190796067524   -1.21303230442479    2.17409665676032
H           2.22370391897446   -0.90462810872360    1.35129828126801
H           0.72202290421714   -0.00188937484595    2.58447696103173
H           1.26639962412234   -1.96598794928054    1.92621347092513
O           0.43393989699088   -1.87841909315029   -0.88130947901482
H          -0.17724060734440   -1.89132148803855   -0.11247651633633
H          -0.10411479498114   -1.50246729053348   -1.61284043029315
H           1.56496520715882   -0.90413733398161   -0.61155225197186
N           0.52104522167433    1.74523494263096    0.16132367664519
H           0.90394572165548    2.66321754118569    0.36371880079901
H          -0.08838225697044    1.78457640809561   -0.74583418760484
H           1.29086401667167    1.05174260840593   -0.02566287171964
H          -0.02590269308021    1.41007923461913    0.96724275360773
