    26
        -50.44778577  Gyration_radius:  2.50292384445 Dipole_moment: 3.942
 S           1.16468842667990   -1.60624770495245   -0.16491974252784
O          -0.29996067905950   -1.77055679249926   -0.18592766842071
O           1.76324704319901   -1.94427507247116   -1.43013266024015
O           1.52875618917549   -0.31212363547339    0.36576443790988
O           1.69749769993550   -2.68414083585437    0.87312540282819
H           1.95434985640800   -3.40633368561808    0.30881445111464
O          -0.83508513282518    0.34765680890957    3.24110498303221
H          -1.33861864663073    0.90252839510437    3.83906640964173
O          -1.19575935439165    2.02209186442451   -0.22582416875170
H          -1.92353155889631    2.41364472116367   -0.71075339177444
O          -0.38331169865305   -1.43430272454553   -2.96495325452428
H           0.48523677754647   -1.71767537313971   -2.62681265260636
H          -1.00294139665601   -1.75425198212129   -2.30299131832825
O           0.80081059336001    1.80274258930077    1.83666217953503
H          -0.10609812467123    0.91545526692477    2.86076638706997
H           1.24643788953872    1.07111090764096    1.36907270659201
H           0.22483406107078    2.20757463047474    1.17573974290666
O          -1.78130455238803   -0.15786537355006    0.93700754984006
H          -1.57666481326038    0.73891725180342    0.45966252498921
H          -1.14342948251145   -0.88316957189551    0.47651663882268
H          -1.45613397815960   -0.04814937049300    1.90606579700083
N           0.48102528495930    1.05646174836733   -1.88883176621162
H          -0.50934545578735    1.68125060813233   -0.94349500838722
H           1.11332920064526    0.58405084759668   -1.24532508745239
H           0.05980760219407    0.32351814053741   -2.46600709687273
H           1.03216424918035    1.65208832222940   -2.49339539519316
