    26
        -50.45476263  Gyration_radius:  2.60388543185 Dipole_moment: 5.774
 S           1.57715598048818    2.06398742134068   -0.40624702598278
O           0.27720555835524    2.67367235082167   -0.72759020951370
O           1.80895298116677    2.01569898184559    1.02249594220544
O           1.72047592203881    0.79798259696969   -1.08408037998605
O           2.68034396535726    3.04490033111733   -0.99340597539467
H           2.73962667146741    3.70590707434787   -0.31054488083775
O          -1.73545673132978    0.09405557289872    1.52852022979139
H          -2.07798114758093    0.74543338735802    2.14120169831698
O          -0.89115009628274   -1.95239365574107   -1.65699762362069
H          -1.00700592713651   -2.67667653965692   -2.27192044175381
O           1.51342512345738   -1.66737924992500   -0.14827566281254
H           1.82576485569397   -0.81502080722299   -0.51039992078680
H           0.81649941252533   -1.93000529352721   -0.76467720099460
O          -1.45038987202465   -2.57680026679776    0.85854872209960
H          -1.75510839782739   -1.73260713662818    1.22754666597991
H          -1.21135000072014   -2.26552783632680   -0.77538395462236
H          -0.56839332339467   -2.71503881262998    1.21766235277988
O           0.74563254814524   -0.20753148808515    1.97282982657653
H           1.18940325117662    0.63938191967937    1.74511846813887
H          -0.74252973525338   -0.00610126148253    1.75774060135596
H           1.08854655809249   -0.84678195625874    1.31058255433981
N          -1.32020949613379    0.71454706308337   -1.04410042269831
H          -2.13340522518662    0.98377439709199   -1.58860588226849
H          -0.88469983243842   -0.12208421092965   -1.45811239717257
H          -0.61306486949493    1.54690540137981   -0.98930180242813
H          -1.59228816315810    0.48770202728708   -0.05260327070957
