    26
        -50.46155136  Gyration_radius:  2.57281733405 Dipole_moment: 3.452
 S           0.76745287279846   -0.01850309686199    2.02243860282789
O           0.87354588686912   -1.34876345306150    1.43285461402923
O           1.80145220860774    0.87544184620181    1.54823585135010
O          -0.57411544100560    0.52275672101054    1.87984449685331
O           0.99383565075976   -0.19745571131433    3.58152209238338
H           1.92018506760965   -0.41123933859139    3.62647680568173
O           1.30712731227066    1.60283500526790   -0.93628717856007
H           1.62922396915242    1.47459654577182   -0.01549404117621
O          -2.31693087568131   -0.68780114032501   -1.22061334003394
H          -2.95472472345048   -1.21621646823447   -1.70172637955511
O           2.54865003115335   -0.23950869413579   -2.74594670423987
H           3.46173181702761   -0.15711549769251   -3.02253234739596
H           2.32760065411614    0.58343220751404   -2.28706587247439
O          -1.27839799740122    1.91694103060351   -0.33643485087233
H          -1.78873072325337    1.23790106915398   -0.79262112065028
H          -1.09288368287065    1.55649617559514    0.55011778627289
H           0.42750233746417    2.02461074059733   -0.83698343619851
O          -2.57598659125734   -1.07152591741869    1.36655662813127
H          -1.77108701989512   -0.56910554761898    1.63957780963541
H          -3.30323845293910   -0.66681212019926    1.84326950856446
H          -2.47301322291663   -0.86613830323814   -0.25584846012792
N           0.40289867550612   -0.89491804464003   -1.08276710137503
H           0.59693359468972   -1.22736809261181   -0.09359554000659
H           0.95452021136573   -1.40557714349808   -1.77032660462477
H          -0.61583428406439   -0.93162517534623   -1.27749587338745
H           0.73228270534185    0.11466240307824   -1.11515535506034
