    26
        -50.46155131  Gyration_radius:  2.57250050302 Dipole_moment: 3.452
 S           1.84809032244453    0.51034463464857   -1.00085592153350
O           0.79863865668525    0.25835730619046   -1.98246467438524
O           1.72285549102755    1.81428882246122   -0.38667840168745
O           1.94969620291648   -0.57411767539768   -0.03818638824369
O           3.21941115025732    0.50641571131158   -1.79662520254476
H           3.15912637156388    1.30894667215417   -2.30470883158719
O          -1.33945751781699   -2.27630821571463    0.59954430037112
H          -1.96949392360557   -2.99351838325496    0.52191417882676
O          -0.29126915911338    1.82813859699596    1.31289058211944
H           0.50567749517428    1.99771064934881    0.76135034562380
O          -2.68696981522407    2.61999145467456   -0.04570090341830
H          -2.92703014864373    3.53770374283857   -0.17629278388197
H          -1.94845314751256    2.61791786423944    0.57974364230420
O           0.91769487054198   -2.90697917828463   -0.59004137512195
H           1.34192316643230   -2.01870924043440   -0.51305737644007
H           1.52820170827545   -3.51807387158968   -0.17318129534683
H          -0.50976097630222   -2.57881292586392    0.14453484377159
O           0.43910834911035   -0.57979874417364    2.21382595572580
H          -0.02085479074581    1.11740941509770    1.93197223698495
H          -0.22830440205363   -1.22479111194940    1.95268781429965
H           1.12013890901400   -0.60797245938055    1.51695939909040
N          -1.34910776039763    0.21516025426929   -0.51912217137740
H          -0.56280904125694    0.19263601690147   -1.23173763677633
H          -2.19003334661899    0.65037108243611   -0.89499012303443
H          -1.52164126426302   -0.73866701270803   -0.14837086036920
H          -1.00537740991702    0.84235660518890    0.26659061666164
