    26
        -50.46248942  Gyration_radius:  2.47955323021 Dipole_moment: 4.753
 S          -0.18466621376326    1.69861073854789    1.03653966811367
O          -0.96995139544663    1.64504654478210   -0.19086570543891
O          -0.78956835595853    0.86989700945175    2.07791584507203
O           1.20698856223113    1.38581211114454    0.84722921930180
O          -0.27141133172854    3.19468105986695    1.54536913282227
H          -1.21059509791097    3.33204761177670    1.61583964985632
O          -2.02710804116090   -2.37172805073798    0.99493329261383
H          -2.69500163582484   -1.87777183857010    1.47450200733773
O           1.35303330937457   -1.54124774042633   -0.83427791540913
H           1.92412118319622   -2.23199298896512   -1.17180975363614
O           0.06405983818491    1.65610405973425   -2.66327255393763
H          -0.32719898586905    1.80149262303796   -1.77931797835494
H          -0.50492586469009    1.01360628748698   -3.09290676835818
O          -1.34849666798357   -0.86922713105650   -1.06114764627589
H          -0.42693310875948   -1.14628015278578   -1.18132285386550
H          -1.91355908933761   -1.89668499839351    0.12996052663985
H          -1.30846220232513    0.05433611910329   -0.74159697786230
O           2.31820032408523    0.73811432647178   -1.48404140145369
H           1.65399684213115    1.12768286889590   -2.08866620382539
H           2.11289029276181    1.13272618055923   -0.61480918714985
H           1.77617592778158   -0.66257007206200   -1.11730294418818
N           0.34027494910917   -1.42445892155153    1.67499146561189
H          -0.54571947689163   -1.98840310609862    1.52399419397798
H           0.91314870482513   -1.78811165587366    2.42841639263011
H           0.86787267757716   -1.41258644450170    0.77139835625957
H          -0.00716512360908   -0.43909441983888    1.90024812951876
