    26
        -50.46248943  Gyration_radius:  2.47962096307 Dipole_moment: 4.751
 S          -1.08136282873816   -1.29516103650492   -1.07095168231957
O          -0.59435560739239   -1.81312071093072    0.20208950904330
O          -2.19388229216166   -0.36949121007951   -0.86470970982515
O          -0.05132410373248   -0.71663281796523   -1.89239854871603
O          -1.67031227167639   -2.53935660783581   -1.85180287154997
H          -2.31313778493211   -2.87971822941579   -1.23794656311120
O           1.62456770010491    1.50444837918093    0.02582740470817
H           2.30243507252985    2.18076572171826    0.04351834163100
O          -1.80802082333448    1.97447088932020    1.88612442421666
H          -2.63860287148456    1.49751381949416    1.93835234422210
O           1.97874899346854   -2.31307399132569    0.76017610906721
H           1.03190904523567   -2.27690448978500    0.51986394939107
H           2.02606033621052   -1.99495533093119    1.66443508811242
O           0.08544103888993    0.14154840397774    1.91662054205616
H           0.77005360822079    0.59073300274590    1.39701402688493
H          -1.10257223776321    1.30484848288947    2.08774135251248
H          -0.22473481447712   -0.60126276884890    1.36102197640030
O           2.51815983491004   -0.54701333708833   -1.21599653110261
H           1.67416495901455   -0.69856827466992   -1.68310799845997
H           2.02583693674519    0.71649935839934   -0.47350652140183
H           2.55018953968515   -1.25461315888347   -0.54013376731736
N          -0.97618827048001    1.90187858985064   -0.61728482428241
H          -1.45556033489950    0.97667295723176   -0.85512982133908
H           0.05531934102232    1.75002151672567   -0.52808906970775
H          -1.18316051604153    2.60754223167001   -1.31533024310966
H          -1.34967163892295    2.15292860106491    0.34360310399556
