    26
        -50.46862845  Gyration_radius:  2.47487029168 Dipole_moment: 4.011
 S           0.54753313647681    0.03462830571711   -2.17806940415900
O           1.07229081740308    1.19167325899029   -1.50575159055710
O           1.42471093523511   -1.11750127439395   -2.20213267841917
O          -0.78971864925752   -0.31311875752065   -1.66800781831864
O           0.32676465858144    0.43053327627923   -3.70026954127682
H           0.41246493179286   -0.41689927894608   -4.12414832601789
O          -1.61774354655199   -0.61912418003139    2.10935036914224
H          -2.21098487864321   -1.08581921366253    2.69812594814207
O           0.52751963510839    2.58878563695118    0.69653963972424
H           0.92916746508901    2.29983648019543   -0.14424271365692
O           1.94410219308421   -1.43921868517281    0.31949594847041
H           1.80413651442500   -1.28772465367395   -0.64746302434627
H           2.86053725279882   -1.70376272773499    0.41675449087308
O           1.03945154653114    0.42480803728735    2.16498276471081
H           0.86449076688061    1.94456615106370    1.36225862355028
H           0.16155736968447    0.07312481874524    2.36532319479002
H           1.43146647762594   -0.19310851690282    1.52440772427470
O          -0.70867513800371   -2.18853571490341    0.24990959741855
H          -0.81099160607483   -1.63403332641354   -0.54901358321052
H           0.24866186672150   -2.21899630292330    0.39965135935280
H          -1.30035837950244   -1.29007362990805    1.43442781642967
N          -1.66301234610505    1.31552914429566    0.19700537319280
H          -2.49427693488970    1.84514678417110   -0.03795336371020
H          -1.82689446041849    0.68527304340181    1.00514909142157
H          -1.35666953556740    0.71102516539256   -0.61822355017546
H          -0.81553011244509    1.96298613960547    0.43189364241255
