    26
        -50.46862843  Gyration_radius:  2.47477709916 Dipole_moment: 4.021
 S          -2.05432223887111    0.90814027134893    0.00179549034663
O          -1.67677011174579    2.30388288163549   -0.07939809359668
O          -1.84048056454277    0.14401224628922   -1.19673246874640
O          -1.44167085676472    0.24826879537738    1.16744761771938
O          -3.61592983293032    0.90735980238023    0.29172104012939
H          -3.71262433031863    1.71844943514761    0.77960838203410
O           2.20682462601120   -1.06838800788421    1.19951014448658
H           2.93084688747906   -1.22373792341963    1.80621825488226
O          -0.26963862089471   -1.85882090301158   -1.98300589587064
H          -0.95776430587600   -1.16726932573883   -1.97206377101161
O           0.79001037753471    2.14035721524691   -0.86670799843206
H           0.96406115014568    2.84642331790322   -1.49163991794694
H          -0.16628818621510    2.21631183272390   -0.62759869994943
O           1.01476069861953    1.18239258395084    1.71055920010716
H           1.80987117637417   -0.18212078415155    1.45108134466087
H           1.15736091831596    1.72267859241285    0.91847989224715
H           0.07227568875882    0.92605494920606    1.66253007125087
O           1.86447617500545   -0.32720890824678   -1.53687524458997
H           0.57756959529150   -1.35900696374649   -2.04882429003800
H           1.48071446570029    0.55309573020241   -1.38247175477727
H           2.18396010612060   -0.62855992108938   -0.67567946394824
N          -0.26590909278219   -2.02819538380133    0.59364060770933
H          -0.28308939890112   -2.09230751341470   -0.49654012372646
H           0.71435052467628   -1.87239184091910    0.89673394346997
H          -0.81708422067814   -1.15900228266220    0.84759787946512
H          -0.66551062955996   -2.85041789571071    1.03061385406839
