    26
        -50.46460302  Gyration_radius:  2.5356877524 Dipole_moment: 4.543
 S           1.22689218395529    1.17103541902164   -1.27737399475857
O          -0.05926823695720    1.75925637283909   -1.58226248699306
O           1.51965137823656    1.25572401990293    0.16138831798318
O           1.40555206699671   -0.17097943208370   -1.78537604120524
O           2.31433505461822    2.07221810361788   -1.99493581470148
H           1.94762435053997    2.94664802811129   -1.91228381639573
O           0.56682292464958   -2.30128183202411    1.26721992657683
H           0.78770182589602   -3.07513012689901    1.78610236528282
O          -2.11156379605433    0.29525017098555   -0.79635248720823
H          -1.49792486164126    0.93163930237727   -1.22521452999400
O          -3.00312148565648    1.43640188351843    1.69114721943108
H          -3.71773525217405    2.06628872003572    1.78973162483103
H          -3.01995364259373    1.14534764756213    0.76873972794149
O           2.70572878963086   -1.13288623485291    0.30658620084780
H           2.56164071444245   -0.20799907936194    0.56729068902199
H           1.43066279225426   -1.93321764566645    0.92644623247833
H           2.47584367444542   -1.10475734109914   -0.63848362701076
O          -0.65004504787467   -1.86400116479989   -1.30844528187274
H          -0.33458925973056   -2.24652889364923   -0.47880322678542
H          -1.84277562837610   -0.58071736469847   -1.15150279425106
H           0.09418116525685   -1.33638301811765   -1.65153178105414
N          -0.55526980382267    0.17110198528650    1.33969414243625
H           0.28492256930194    0.70669275930040    0.98925876645557
H          -1.01360465912874    0.63319441860935    2.12303371094586
H          -1.25255946103038    0.16193028258332    0.53206821183318
H          -0.26314835518416   -0.79884698054221    1.55385871616772
