    26
        -50.46460288  Gyration_radius:  2.53539459091 Dipole_moment: 4.544
 S          -0.01427179723417   -1.61688846050007    1.37489846005275
O           0.11428927132128   -2.36042983464608    0.14049053093501
O           1.08040269016471   -0.64627438190649    1.52467863234224
O          -1.30908797309471   -1.00321442966955    1.57019925380662
O           0.16974041167979   -2.66276332824629    2.55049058173122
H           0.82434762661093   -3.25809540667577    2.19977756665189
O          -0.47027039788276   -0.95002205343356   -2.01409043302541
H          -0.29312964562823   -1.64799298168368   -1.34554999460882
O          -0.69241582154574    2.56985436709444    0.38217111533053
H          -0.85848262988990    3.50096126344645    0.53168394349184
O           2.04927700088212   -0.10310461650432   -3.11824049712216
H           1.18956888081245   -0.54158248031304   -3.05103568682863
H           2.52661689245739   -0.54792320668670   -3.81922232221036
O          -2.27404451145759    0.35349854759962   -0.56228165983512
H          -1.93865596793921    1.23232308346694   -0.34001670851804
H          -1.32402437233935   -0.55283227631885   -1.73283219623254
H          -2.10575922452493   -0.19610678874462    0.22478909783865
O          -0.43524775702207    1.25419745629836    2.63283602894482
H          -0.62839920532547    2.14540862030567    1.28417886205979
H          -1.09485548756602    0.55181387237674    2.49619397087656
H           0.39424382413432    0.76980761430405    2.48754278790680
N           1.03833457332849    0.76743773306307   -0.68200120073003
H           0.42233332830223    0.14870496622908   -1.29539377232952
H           1.21257004045581    0.21534991446035    0.20148122477971
H           1.89376623213751    0.94672337471097   -1.20479966769746
H           0.52315401918700    1.63114944197324   -0.43594790764501
