    26
        -50.45792443  Gyration_radius:  2.59310197895 Dipole_moment: 3.555
 S          -0.25438924274880    0.28923757397697   -2.22170860801291
O           1.10210473899329   -0.17358493081030   -1.94106420725767
O          -1.00920637452695   -0.62670574764396   -3.04456659204665
O          -0.92738128086971    0.70165444301211   -1.00446423391671
O          -0.09345859172418    1.62439699543538   -3.07963970977309
H           0.09873267367346    1.28991297658890   -3.95013686070507
O          -0.03898649366380   -2.37640239004404    1.08679097096456
H           0.25969854595007   -3.28068758071839    1.19032037852447
O          -0.28151212541779    1.99564233655663    1.28316053383846
H          -0.54417388680744    2.01211576871870    0.34833320289593
O           2.46398380694526    1.96397527689684    2.12651963102980
H           2.92362125359952    2.71282666619262    2.50724928243929
H           1.54957328309742    2.24565768355133    1.98199792240840
O          -1.92275473846932   -0.16255674155666    1.40950939839945
H          -1.76015145003322    0.03894083049182    0.47230765021382
H          -1.44663547145799   -0.97995322226588    1.58995814695509
H          -0.97948988792848    1.45793541734956    1.70182624752157
O          -1.55508905979046   -2.24454088210963   -1.06614147202898
H          -2.43870455942183   -1.95290696258598   -0.82808022043448
H          -1.31282268684715   -1.72064697466557   -1.86286428364200
H          -0.56218823552240   -2.35705443043763    0.24515013921515
N           1.36726646277004   -0.10171836311338    0.62436391109710
H           0.98638379026613   -1.01264998444638    0.94574838582319
H           2.28620776559341    0.10539065459636    1.01185422591604
H           1.36593580788973   -0.11657937744360   -0.44547347936894
H           0.72343594642176    0.66830098448577    0.91904964992768
