    26
        -50.45792448  Gyration_radius:  2.59296312704 Dipole_moment: 3.557
 S           0.76479641437792    2.10668045375620   -0.24376613903870
O           1.71267216867780    1.16983599785450   -0.84117678365735
O           0.20283514518675    3.03358714864513   -1.19814609853165
O          -0.21420292674438    1.41091830933761    0.56995969646825
O           1.60803958673164    2.98770903428121    0.78443992438200
H           2.04639986185972    3.61102338186122    0.21355723127809
O          -0.24840158722482   -0.69159998844785    2.27342855837247
H          -0.09042359872387    0.25006324749379    2.09553656128158
O          -1.10399971300398   -1.29662610888551   -1.98328148747435
H          -1.12288450732971   -1.66143758721341   -2.86884287904823
O           1.79714877961874   -2.68892291406392    1.99670014092281
H           2.24091490022966   -3.11667776428789    2.72964285396422
H           1.13134225779542   -2.10168596936545    2.38173691730644
O          -2.30073832455318   -0.38073815013551    0.52385412106001
H          -1.72135145864827    0.39672908233385    0.45165823232920
H          -2.17363095371695   -0.88079674272947   -0.28926409992702
H          -1.17105360665493   -0.82164601459868    1.98501670813772
O          -1.51012644760611    1.30333893285491   -2.14770348495200
H          -1.21053816883848   -0.31699102344583   -2.08998512353174
H          -2.30293269405546    1.54313549692369   -1.66146164585338
H          -0.83419509999788    1.97040546877572   -1.89066971582194
N           0.91060555608242   -1.18824441742048   -0.16828527075232
H           1.34437919928267   -0.25249025827582   -0.45286330731528
H           1.60876095998778   -1.91625927152702   -0.02656550004130
H           0.42942307064586   -1.03475132034535    0.74774450222950
H           0.20716116662160   -1.43455901339646   -0.89126393178177
