    26
        -50.46210367  Gyration_radius:  2.43385848382 Dipole_moment: 8.040
 S           1.67624434411989    0.98541438169878   -0.51158975942838
O           0.60351278928106    1.72177167519211   -1.22095169442757
O           1.06485823091566    0.04534598538489    0.41624147398437
O           2.60391301264678    0.35232916515065   -1.40976105698398
O           2.46201832707045    2.04013089264996    0.33801890730987
H           1.77529017970783    2.42292704565114    0.91195886604172
O          -2.01661726699408    0.66833972907974    1.62282597685315
H          -2.69795587168166    0.72602402556321    2.29336533308133
O          -0.67221308324791   -2.27666391908618   -1.02782941649161
H          -0.87142048226186   -2.88241120777432   -1.74372544264262
O          -0.00523022116460    2.73455345984403    1.19064049161961
H           0.01680918279157    2.60942219629947    0.22875329545226
H          -0.59562546449852    2.04705897639027    1.52905972313822
O          -0.57002369637274   -1.50686725206559    1.75222686315272
H           0.18138582128334   -0.98143136830013    1.41076968075851
H          -1.49064363183143   -0.15810107258134    1.81153110937011
H          -0.80221349019673   -2.08359150415047    1.01481084709813
O           1.93211623440933   -2.16795660832062   -1.07923732810291
H           2.22463425039946   -1.25514753376380   -1.31116190114117
H           2.24725383285011   -2.29695700365045   -0.18151214389284
H           0.32806333107333   -2.20274350664708   -1.01703227406141
N          -1.50684255669981    0.28733835336997   -1.01669130928557
H          -1.85947123909125    0.49652287494874   -0.06129840733111
H          -0.61560246795029    0.89437166195138   -1.16223353016963
H          -1.20900385572027   -0.71881599506106   -1.05399274422004
H          -2.20323622885193    0.49913653821141   -1.72318553967096
