    26
        -50.46210368  Gyration_radius:  2.43380346373 Dipole_moment: 8.038
 S           0.09820155902446   -1.61001679848734   -1.20022544723406
O           0.52149090032381   -1.01627762842516    0.05941649992705
O          -1.07301027035340   -0.85975120376439   -1.71164668512726
O           1.16672395155264   -1.69408571726810   -2.15899806817958
O          -0.39625064098693   -3.06330519542594   -0.89176883399140
H          -1.11158295257202   -2.92499290095861   -0.24621856258310
O           1.58944800144949    2.02885840927910   -0.22173175966839
H           2.01845327459483    2.75050332642334   -0.68458228089388
O          -1.71491328167369    0.65168369607684    1.94445108141653
H          -2.15810116091631    0.90681152470709    2.75415012631720
O          -2.34701029298911   -1.77986054370232    0.46599328455544
H          -2.19267347964232   -1.37543408328462   -0.40231725851799
H          -2.10162026996201   -1.10539659779250    1.11458684709683
O           0.89020844585925    0.52894909086536    2.14349593452194
H           0.86828797703637   -0.19158946523910    1.48194718267765
H           1.27781269865859    1.27064189588009    1.66396079821495
H          -0.74340279298659    0.57141260894671    2.15633079834294
O           2.90828655754997   -0.05556309675718   -1.06596175032543
H           2.06784273366700    1.20102980394742   -0.52495480515115
H           3.15222125447314   -0.57714305942771   -0.29769602799209
H           2.30844707662848   -0.64561670802798   -1.58035782910130
N          -1.01674758128602    1.42696333201664   -0.56248678433661
H          -1.42027193663777    1.24397852528054    0.37797164130299
H          -1.54381640644497    2.13664300458025   -1.05998769604456
H          -0.00875616859340    1.69874439982400   -0.45039709512087
H          -1.03926718576628    0.48281340072411   -1.10297331010895
