    26
        -50.46210371  Gyration_radius:  2.43389396552 Dipole_moment: 8.039
 S           1.59155853784700    0.35074634659018    1.17749642422946
O           1.13346031937968   -0.08860168905215   -0.13225529301219
O           0.48736591594536    1.07357513898482    1.85157681335005
O           2.11600533650550   -0.72801543885085    1.97082248238552
O           2.73902650026477    1.39130894106968    0.94906341830086
H           2.31159352189498    2.08309254032602    0.41404472818955
O          -1.27835261328558   -2.24881845593761   -0.01777065362340
H          -1.76371210517184   -2.97609195854952    0.37531619548316
O          -1.34318592099811    1.59257510953692   -1.67556376651764
H          -1.78825131895242    2.01225512291825   -2.41237836892344
O           0.75414763401791    2.88338218479478   -0.11452714370451
H           0.18622173561610    2.49387043030554   -0.79384808468017
H           0.48195530070280    2.47169566811686    0.72079203800645
O          -0.27134732383605   -0.72270876884827   -2.25157870666902
H          -0.91834884530794    0.76101235343324   -2.02649258636380
H           0.42303928252427   -0.52222620278061   -1.59205505379544
H          -0.78965278591070   -1.42174576780419   -1.83565954387303
O           1.18772457681921   -2.79092765925748    0.63118530112123
H           1.53838424672263   -2.08945832424288    1.22916083140380
H          -0.31742836369404   -2.41812322045164    0.21480047856488
H           1.72203858321106   -2.71448997024096   -0.16286135996831
N          -1.67140910621766    0.32026866471403    0.70054369363670
H          -1.70079088449706    0.88691068133489   -0.17062889051400
H          -0.77638192662439    0.62163478077965    1.24103766823591
H          -2.49909257576421    0.46956908957499    1.26763556019931
H          -1.55456771119022   -0.69068960645870    0.44214382853810
