    26
        -50.46463412  Gyration_radius:  2.47175167737 Dipole_moment: 4.135
 S           1.66553969416892   -0.88348934916130    0.09032280068734
O           1.46402217599460   -2.09320597801016    0.84767780052786
O           1.02809713470649   -0.93421629766134   -1.23658432017935
O           1.32262462701306    0.34522421606344    0.76206256153373
O           3.23127479691390   -0.81713062956053   -0.19891333894406
H           3.50774813022018   -1.70657670029995   -0.00432606887815
O           0.96676256303434    2.99216544590445   -0.07633477942350
H           1.70677160845669    2.40263389180074    0.11201349541054
O          -2.27895629198573    0.59136801916437    0.55580964860369
H          -3.21898983050935    0.40837703759392    0.52616385263692
O          -0.91528204923636   -2.74468979832016   -1.45392501924242
H          -0.16504137924634   -2.11517195215283   -1.48287239894155
H          -0.52363921183391   -3.61646227297165   -1.37692659387829
O          -0.38272248117689    2.08486595303881    2.02356441570331
H           0.25797790853005    1.36778675608624    1.89646653396889
H           0.43202159595179    2.94968022767840    0.75274049245718
H          -1.22015900438814    1.72209809110029    1.70599988608413
O          -1.17837316225866   -1.70750617352789    1.03252263026463
H          -0.22348490568486   -1.81098390971022    1.19077962523280
H          -1.84163142765917   -0.26756685026807    0.82565906469644
H          -1.32942673284244   -2.17398699423609    0.18647565593444
N          -0.47576834293471    1.20830384759558   -1.36153718300051
H          -1.27122298983334    1.01084771554225   -0.71366825058934
H          -0.80395062785571    1.43233767386463   -2.29470783562158
H           0.10014838876208    2.00564341920376   -0.93409213391937
H           0.14565981377043    0.34965463120229   -1.37437052108202
