    26
        -50.46463397  Gyration_radius:  2.47199529404 Dipole_moment: 4.136
 S          -0.17918089842672   -0.56258891790615    1.79357971109250
O          -0.10886711060859    0.89889420754513    1.62445234575716
O          -1.53082494128514   -1.03685550488789    1.95450272132575
O           0.60251041421401   -1.22077630789592    0.77654129978443
O           0.54497030846177   -0.85950745205284    3.18167344987963
H          -0.19285116421878   -1.02642576069691    3.75890577020482
O           3.03848026044067   -0.65797030309093   -0.48299636791446
H           2.74527577456465   -1.01958921024820    0.36195505093391
O          -0.48469990297065    0.21809781442251   -2.35969003293870
H          -0.99281704268368    0.60360659917352   -3.07469536843237
O          -2.38565315050660    2.02782910125096    0.82245102322560
H          -1.53788784578330    1.70517356915739    1.19293209153985
H          -3.03199476408496    1.93295062526213    1.52422336686346
O          -2.23654561697867   -0.31588044161875   -0.52437388515820
H          -1.15423566011430   -0.07569360570241   -1.67606889337307
H          -2.01060000352082   -0.78839453601646    0.29624308467686
H          -2.47878291532375    0.58165433691727   -0.22115183582867
O           1.16145310660307   -2.00645199475209   -1.79192412594450
H           2.57679262961428   -1.23026311807613   -1.14200741958839
H           0.80237030382224   -2.02367570228697   -0.89101232053908
H           0.60853913974883   -1.36858770201688   -2.26224315225264
N           1.25640859734481    1.27311734654557   -0.58102811427500
H           1.58094556101929    2.22494897494633   -0.71304780522021
H           0.73331957050365    1.17487413594620    0.33560706589132
H           0.60751765955750    0.98091457733040   -1.34596036642456
H           2.06635767058060    0.57059926872130   -0.55686729329309
