    26
        -50.46214873  Gyration_radius:  2.45501920346 Dipole_moment: 8.520
 S           0.49153681442141    1.39979695938552   -1.53782863506507
O          -0.95240337150340    1.33620375935286   -1.27879119038443
O           1.22216304863921    0.72039556224502   -0.46144068920714
O           0.84632423277961    0.89393708786547   -2.83577498114672
O           0.87996150997734    2.91686872367928   -1.48432261909861
H           0.63380928836052    3.19355958873206   -0.59195649907434
O          -0.34361346126810   -2.54941025401716   -0.45909166747416
H          -0.60794399847849   -3.38838154667418   -0.83933995198126
O          -0.85357991607687    0.26506930250357    2.63905221713622
H          -0.93909728053767    0.08108323160384    3.57492706876674
O           0.34676679797597    2.57783163860032    1.20343693742705
H           0.81421093163018    1.84765827695085    0.76102115528818
H          -0.27088009085555    2.14969267820948    1.80591221896028
O           1.40962301654836   -1.56375612368098   -2.11378872803112
H           1.16058867726195   -0.69713411902120   -2.51191961019210
H           2.19341310340934   -1.36294919571526   -1.59540902533592
H           0.30591589915819   -2.15336026451577   -1.11155566617363
O           1.09227277461880   -1.07262628770830    1.50015842312384
H          -0.03010689402685   -0.20398762273393    2.33150523359826
H           0.71247416167389   -1.82550352564851    1.02986131461797
H           1.28960701299035   -0.41732674926083    0.80133510084330
N          -1.90577649626735   -0.44790744638124    0.24940813801442
H          -1.50609597448912    0.33821591247360   -0.40786770670483
H          -2.90541057423328   -0.53752140727767    0.10745431943105
H          -1.40112806876287   -1.32467514664399   -0.00259703466249
H          -1.68263112289972   -0.17577304234308    1.22761188729244
