    26
        -50.46214881  Gyration_radius:  2.45505881835 Dipole_moment: 8.525
 S          -1.36104509849258   -1.53329805313401   -0.60429616481189
O          -1.35967109294221   -0.46662679533767    0.40388932707567
O          -0.33344250703676   -1.26406062069220   -1.61804774043954
O          -1.23014596326418   -2.83685615185243   -0.01266162527759
O          -2.73811246070826   -1.47334872803328   -1.34954546321392
H          -2.77436418590924   -0.57792031842599   -1.71041112827082
O           0.38476524284479    2.64804105571345   -0.78013524914025
H           0.58271440919736    3.58212221179588   -0.70733965364158
O           2.10428876396476   -0.47214713933513    1.47405867148631
H           2.89988509057976   -0.85532957374717    1.84633952625795
O          -2.12639061790350    1.21630501782595   -1.48523959642316
H          -1.39423863577524    1.82274164156113   -1.63979992195805
H          -1.90845191464178    0.76529812677882   -0.65071939539543
O           0.19129073036038   -2.13370055269631    2.07644306910809
H          -0.48873011007517   -1.61977387499701    2.52006476862130
H          -0.27543083917094   -2.52509547410711    1.30148377049444
H           1.37301905191032   -1.12714539614837    1.67576736226482
O           0.04411505552555    1.48490299563454    1.54411758311672
H           0.85478352652972    1.01236843223117    1.77181194316171
H           0.16912909201742    2.33090649242752    0.13952136830392
H          -0.57071058966853    0.78878491381888    1.23717662141675
N           1.62216247090030    0.26150467205323   -1.09269255519421
H           1.27016537394132    1.23977042110869   -1.10384198874124
H           1.92354347536335    0.00010125219931   -0.12948555774685
H           0.77425175189242   -0.39412742435232   -1.33920705767807
H           2.36661999040844    0.12658287961687   -1.76725091348211
