    26
        -50.46162510  Gyration_radius:  2.55231795511 Dipole_moment: 4.682
 S           2.10621587917614    0.80825552489521    0.09380128983484
O           1.88118654044521   -0.30865389234949   -0.82772775768212
O           1.39118957960596    2.00194736201321   -0.32319072142093
O           1.86124785682856    0.41053423797601    1.46009535268767
O           3.64991021487495    1.16483828222069   -0.00450404143509
H           3.74375231211542    1.61371183957714   -0.84026580721942
O          -1.61158018157891   -2.73388681222395   -1.13770760835375
H          -2.38531974071528   -3.27111978513078   -0.96507917652391
O          -1.59700331240803    0.20597414869543    1.48462320766957
H          -2.15467562388744    0.10453631137092    2.25737636290016
O          -0.13330915307145    0.92131166868698   -2.24883485350742
H           0.30189666122359    1.50546518834625   -1.60183415207427
H           0.47740294890746    0.18034574391765   -2.32823332684353
O           0.00062887764143    2.19010118938396    1.96358469316198
H           0.75809711972004    1.58739162768728    2.10206767774361
H           0.22087511602232    2.59323858451821    1.11109844197295
H          -1.04924485566757    1.03040103783709    1.65090459751872
O          -2.33407107977168   -0.22480095467628   -1.21495846908015
H          -1.63298258985828    0.25586038620504   -1.70688250337698
H          -2.24056788560438    0.06096657887821   -0.29538509707753
H          -1.94718286921612   -1.80819706834547   -1.30588014224622
N           0.13903565117254   -1.67666719360954    0.54728372507748
H           0.87136277153746   -1.17118530403300   -0.04056901632300
H          -0.46444123797162   -0.95248752258560    0.99961664509132
H          -0.47067089119525   -2.26324950845766   -0.08343621838757
H           0.61824789165662   -2.22463169080309    1.25403688789717
