    26
        -50.46214878  Gyration_radius:  2.45501504078 Dipole_moment: 8.524
 S          -1.11199239415315    1.59051244536410   -0.89541652805482
O          -0.84400184907684    1.82538738279837    0.52901741383384
O          -0.27875948714047    0.48588909768121   -1.38502817585258
O          -2.50696237628051    1.37901985380790   -1.17093444900380
O          -0.65894612349668    2.88900537125415   -1.64638616634044
H           0.28049060595034    2.96926480167024   -1.43567442350795
O          -1.12479864948690   -2.15946848496829    0.94716920572315
H          -1.71144834579396   -2.77126798489061    1.39429327431281
O           2.63240501180599   -0.24892783910145    0.88026852886055
H           3.48303560428889   -0.65305737560546    1.05381015907836
O           1.84822321035607    1.98595280728603   -0.92123915947483
H           1.21302486317205    1.30854019950383   -1.21266173369876
H           2.32773623610064    1.58074959043538   -0.19075779989998
O          -2.49218533932388   -1.24177417690932   -1.07059524346426
H          -1.66123429873147   -1.78014798315837    0.19032752342175
H          -2.63469591434338   -0.26644476745619   -1.06365017817201
H          -1.95775950025657   -1.39142630067141   -1.85505863420255
O           1.12481992153226   -1.67457496167151   -0.72146910680675
H           0.62555314140198   -0.92735365861567   -1.10779912046942
H           2.18837943355842   -0.80898623583401    0.18595733846370
H           0.47711613083266   -2.15192418720610   -0.18769202662868
N           0.16614060614471   -0.00235006254216    1.96672099611868
H           1.17572612290898   -0.06902671052764    1.72738822286832
H          -0.32704952355033   -0.87694864132731    1.68626210753436
H           0.02992332493799    0.20552393598615    2.94941439911548
H          -0.26274042135307    0.80383388469328    1.35373358624897
