    26
        -50.46214870  Gyration_radius:  2.4549797566 Dipole_moment: 8.526
 S           2.04443391602847    0.35736853552514   -0.51125456135673
O           0.74934636051532    0.92791841701660   -0.90044594229972
O           1.90153814777217   -0.39969830675604    0.73869861158000
O           2.63260929042779   -0.41993294180587   -1.56781480110133
O           3.00738628075658    1.55169521539005   -0.19261786374661
H           2.55575029287822    2.04141600706707    0.50705849151576
O          -1.70425857853173    1.03228031605296    1.94824633387894
H          -2.51096244461618    1.35306970919546    2.35245697311217
O          -1.36529989853568   -2.01913046756248   -0.94167103451742
H          -1.63662317498512   -2.89166850348958   -1.23046784177563
O           0.83837776762316    2.42293173702020    1.27790658640194
H           0.14376677266318    2.10840019319005    1.86644378445710
H           0.64065904190829    2.01768256336125    0.41535439681825
O           0.40361239366108   -1.23421588874608   -2.68459077969238
H          -0.65978942677218   -1.73011537875067   -1.59224547999145
H           0.10874058940289   -0.37839081596634   -3.00709282258460
H           1.29828121740379   -1.05188666417757   -2.31336377324286
O          -1.89431860449961    0.75913841372443   -0.65188964967264
H          -0.95079358628184    0.91811996283906   -0.85505837983678
H          -2.03419882137578   -0.17490393415253   -0.85250114613909
H          -1.84714155370308    1.06718784166903    0.96274862931213
N          -0.36577582949460   -1.27023898041589    1.46617646375703
H          -0.25821694511077   -1.98799322047710    2.17379009917302
H           0.62260983167189   -0.88989686740164    1.16949543416471
H          -0.80602493226603   -1.64706898333487    0.59950181010306
H          -0.91370810657061   -0.46206797897709    1.82313646175767
