    26
        -50.46162528  Gyration_radius:  2.55237346617 Dipole_moment: 4.686
 S          -2.25337306696426   -0.01399532020724   -0.14584411585022
O          -1.67284157367977    0.91379542912331    0.82868103148845
O          -1.91043027515317    0.35366979170123   -1.50866547987093
O          -1.95200790382521   -1.38348233835596    0.19845222814678
O          -3.82859095981981    0.14581565551538   -0.03128322320411
H          -4.02029184657289    0.98044503464856   -0.45010073281686
O           2.39183066548067    1.10717493878479    2.10171376661705
H           3.28303743522299    0.90881602273032    2.39064645923262
O           1.40739786403348   -1.55608178739802   -0.62858044938756
H           1.94052198946870   -2.35105747809380   -0.67524768666030
O          -0.06235161212071    2.22607165431130   -0.98098068696160
H          -0.42233625896573    2.34342819022135   -0.09500022594017
H          -0.67552179216221    1.59022768356424   -1.39209998542085
O           2.33954725166198    1.11492460516919   -0.50985379348486
H           2.44370981559291    1.24652639437990    1.11391166826267
H           1.54602990162773    1.62947465864843   -0.77471227865698
H           2.13138382793746    0.19607996685923   -0.72980281119397
O          -0.72357307694689   -1.99421533857650   -2.03758929348526
H          -1.27275545972272   -2.08935457188640   -1.23407708295981
H          -1.02148039795335   -1.13961002268678   -2.38191159931766
H           0.63390320309903   -1.71049550861374   -1.24925965000068
N           0.34450981489360   -0.51524551286011    1.65695072346193
H           1.12408468315386    0.09701882055302    2.01891934598426
H          -0.48237668269328    0.09636379745140    1.37494670449045
H           0.68841836629357   -1.00446323573172    0.79926305643479
H           0.02355611810249   -1.19183152926370    2.34152410107839
