    26
        -50.46162488  Gyration_radius:  2.55248266885 Dipole_moment: 4.676
 S           2.08874397410981    0.75867571848415   -0.40116989669308
O           1.64042142581752   -0.36882491256132   -1.22276232156594
O           1.32151568515006    1.96166270482355   -0.67369581138448
O           2.15017342037550    0.39128081417336    0.99390855478067
O           3.57724328352023    1.07648351256471   -0.85218498698725
H           3.48899348008292    1.51224004858878   -1.69545076623465
O          -1.87970862772263   -2.71472113493889   -0.68174874760219
H          -2.60455142755186   -3.22959362732227   -0.32583815045279
O          -1.21723981326593    0.27146028902533    1.79960355339490
H          -1.58829741387780    0.19748170593343    2.68013775179613
O          -0.61896757585920    0.88296213289232   -2.18104654897706
H          -0.03821117534897    1.46838764108395   -1.66224933576380
H          -0.05594333683464    0.12652723074805   -2.37892751883496
O           0.48628662849746    2.22431981628143    1.86223168393019
H           0.51695946655642    2.60614192416101    0.97281627482764
H          -0.62985531620058    1.08497560434314    1.81968978088362
H           1.24341824050025    1.60590054042420    1.84115771593211
O          -2.55309906875113   -0.19104057161341   -0.65403026726945
H          -2.22677677735764   -1.78450071107229   -0.79185520987627
H          -1.97144136225112    0.26341448540558   -1.30189686862529
H          -2.24943127561962    0.10919280830961    0.21407952541699
N           0.22656199645746   -1.66927532486506    0.53979279563815
H           0.84215928854753   -2.21558930962890    1.13312583175185
H           0.81734873464873   -1.19247613835733   -0.20932465853079
H          -0.52100135006372   -2.25245943511009    0.07640858529916
H          -0.24530110353545   -0.92262582176842    1.09922904514325
