    26
        -50.46461078  Gyration_radius:  2.53425831911 Dipole_moment: 3.048
 S          -1.94934358031538    0.00068000763041    0.79196547192575
O          -1.51777333499362   -1.38370893040345    0.94041138267706
O          -1.31989414878258    0.87861730342259    1.75352699182112
O          -1.81860867212182    0.46702353160358   -0.58285661777028
O          -3.50425646649609    0.02531541685417    1.09774686068052
H          -3.53511157715100   -0.09056025317483    2.04207325753759
O           1.17494329595070   -1.64700201810977   -1.77985504745004
H           1.57124529750399   -2.22884825817123   -2.42885395778613
O           1.31184067927407    0.90776412206669    1.61408291585665
H           0.36167411107730    1.00033702321867    1.84967589941419
O           1.96755638500993    3.20396874692060   -0.00435676691950
H           1.98048093115417    4.09951370049773    0.33468866022732
H           1.94134460415613    2.62028233138974    0.76634399209948
O           1.16430002546150   -1.69176654668383    1.09868113540842
H           1.35628890438600   -1.84077168779780    0.16303768137809
H           1.47909968386923   -0.05919063204628    1.66914260947330
H           0.19178243131479   -1.70423861102923    1.16944319546046
O          -1.41432600462738   -2.01374133476224   -1.60845694814401
H          -1.80815549363057   -1.15924572326119   -1.82461590253104
H           0.20001105230849   -1.86093527420188   -1.76638039412335
H          -1.49798699978213   -2.04081887821504   -0.63241407687605
N           0.74070539766951    0.90893238507576   -0.96512451393128
H           1.06148590248157    1.78043269445116   -1.38411375056135
H           1.09643143887228    0.06627195690963   -1.44804844238579
H           1.07771227640227    0.90905607416154    0.04880800605877
H          -0.31144613898582    0.85263285374563   -0.91455165156630
