    26
        -50.46461083  Gyration_radius:  2.5347590513 Dipole_moment: 3.054
 S           1.92921136487797    0.06767835305053   -0.84110653904593
O           1.49750048400851    1.45987846735832   -0.85526654606674
O           2.28344452941840   -0.38415219020776    0.48629109548947
O           0.97216903912894   -0.80576659035510   -1.50864544742127
O           3.24737036512903   -0.00609421114705   -1.71806203995455
H           3.89574683109926    0.41143627198782   -1.16002307750813
O          -2.32033305430352    1.08434624590702   -0.83402610740333
H          -3.14127678037941    1.45828222913477   -1.15502621946143
O           0.32184624492954   -0.20375318559821    2.23735900052017
H           1.17365389526428   -0.30597355655065    1.75687559091134
O          -0.88747173040935   -2.82100945054609    2.32392929070337
H          -0.52785537920255   -3.55129823334610    2.82846779323179
H          -0.43280084406739   -2.02551738076888    2.63337639548246
O          -0.35108214664063    2.05987508633009    1.02553922087708
H           0.08250439522716    0.73993945249335    2.10266010869987
H           0.38654092746433    2.00082376581855    0.39042346521939
H          -1.15198475845031    1.91522485123308    0.50388930006379
O          -0.42228561018811    1.23384750286500   -2.63478490428226
H          -1.65294347659031    1.19523771690211   -1.56803118427560
H           0.30088798160144    1.56633070636453   -2.06298741423039
H          -0.15177940408781    0.32185745072649   -2.79890920495239
N          -1.03700829792557   -1.09722315692148    0.15534663346282
H          -1.75732665514107   -0.42636049681261   -0.16244556394363
H          -0.58250198641956   -0.73566493796975    1.05214126794793
H          -1.41052184671287   -2.02174622636288    0.36433848005172
H          -0.26370409747356   -1.13019847368057   -0.56132340412968
