    26
        -50.45792512  Gyration_radius:  2.59150515716 Dipole_moment: 3.527
 S           1.77914922825619    1.33241592911737   -0.34592692247774
O           1.09410767359802    0.74124582169116    0.78826489046251
O           3.11055738099781    0.82274609850878   -0.57601272503703
O           0.93811322706657    1.30542408560918   -1.53942312093529
O           1.95522835523008    2.87210789373076    0.03263250634181
H           2.63248736546616    3.15900696769758   -0.57200395955949
O          -1.41795005382409    0.72032214370358    1.77908098119417
H          -0.54291125771665    1.13075043766248    1.67664893767065
O          -0.12686883814125   -2.41725456436732   -1.00934097320829
H          -0.10624917283415   -3.05045421403758   -1.72789044174577
O          -3.58860174157000    1.24702035984161   -0.02698115018580
H          -4.34053246026401    1.80394654609860    0.17649487223315
H          -3.04912434529922    1.20770724912907    0.77541389202616
O           0.02084841265629   -1.58683820741076    1.79307519027016
H          -0.14147608596404   -2.13586562196106    1.01884551207745
H           0.59981284652608   -0.86619595480795    1.49220180393849
H          -1.20981510392524   -0.16364563245435    2.13319118279043
O           2.34987586887760   -1.67668475502059   -0.48495764339283
H           0.81114405263813   -2.12740793650093   -0.87505463087575
H           2.68008003465044   -0.75924414302748   -0.61405095666587
H           2.57547315509773   -1.90388275115548    0.42060575298775
N          -1.22412655222004    0.06113359481030   -0.88061529082221
H          -0.38717480914559    0.63025930721160   -1.22773386298611
H          -1.31977744752750    0.25516050833573    0.14288103800319
H          -2.09697432539893    0.33970404528081   -1.32554329508539
H          -0.99529541513004   -0.94147719129412   -1.02380160692165
