    26
        -50.46461169  Gyration_radius:  2.53619725139 Dipole_moment: 3.101
 S           0.40517435906802    0.02834786655084    2.07101623898017
O          -0.05519839794066   -1.33337066539581    1.82887321011648
O           1.51673831083652    0.38985169254870    1.20007637322541
O          -0.67680358530809    0.98755946033743    2.04210653333216
O           0.99835097353339    0.05127948659171    3.54062420746119
H           0.21736760725576    0.01688421898960    4.08364199023717
O          -1.99395171233678    1.05489754962046   -0.24027438741824
H          -1.66642862323953    1.14970609552528    0.68193020189464
O           0.72435605549635   -1.75655508348219   -1.90180747401094
H           1.00485928746040   -2.38019766587956   -2.57203269292221
O          -0.84654940993720    3.20988838986546   -1.77520793301062
H          -1.09867924953158    4.12862430916341   -1.67782900845684
H          -1.51244699302220    2.69206159126361   -1.30213406470644
O          -1.67496979758137   -1.57845727863719   -0.32285343246371
H          -1.20438467259923   -1.60295980718618    0.53093323258651
H          -2.20135035062715    0.09764548851119   -0.32327062280746
H          -1.00956298221027   -1.79581097428460   -0.98961050903497
O           1.96892261775753   -2.15572672762811    0.36936905122691
H           2.43026230809751   -1.32904179358953    0.55791854015991
H           1.19814122558486   -2.10674721312416    0.97270868448894
H           1.23029330011456   -1.98612431326612   -1.07242332752573
N           0.47267895422692    0.84701105272484   -1.16430013905945
H           0.61806133065483   -0.02511647627107   -1.70115772681007
H           0.71165195495377    1.68723289659981   -1.68847052313128
H          -0.55740202933991    0.93194994291846   -0.89391509317298
H           1.00086951859787    0.77716797762013   -0.25391134918706
