    26
        -50.46461155  Gyration_radius:  2.53548914063 Dipole_moment: 3.078
 S           0.40478581368105   -1.99753670440891    0.53808899761503
O          -0.70387005486376   -1.36149915363561    1.23869023356517
O           0.17197629271356   -2.06674682354422   -0.89928460703497
O           1.69005393292881   -1.41718182915477    0.85895914642938
O           0.43262439528061   -3.49213067896486    1.06475484344053
H           1.27214323485843   -3.81093563766588    0.74885167957873
O          -1.98493112414799    1.05018008895806   -1.48242301324279
H          -2.70917424391386    1.41181496832934   -1.99380897574916
O           2.01941589762547    1.03097896495054   -0.06095836098258
H           2.10706716005588    0.12851108833222    0.31936583690723
O           1.35759615618632    2.79541279831783    2.12194148621951
H           1.88397119026560    2.37424541400857    1.42850241801749
H           1.96673427386503    3.01699859495408    2.82690111228010
O          -2.38682162916481   -1.47077418716805   -0.89031029998877
H          -2.20794372773923    0.09165578196710   -1.31514323683855
H          -1.49933164430872   -1.82056358775549   -1.11521879112064
H          -2.38555801663372   -1.51125092156140    0.07410022880229
O           0.68013634106632    0.24228082382469   -2.21212028179095
H           0.57551540307103   -0.66802157208389   -1.87832352730783
H          -0.20641419212067    0.62713833759545   -2.19208479269286
H           1.78778811805692    0.87257570664215   -1.00302015174471
N          -0.48031142863787    1.21234507685514    0.77467619419812
H          -0.63159427651174    0.22194904643203    1.10459601363702
H          -0.53653482999005    1.88755462475830    1.53547857799410
H           0.52188990287384    1.24286183751720    0.40560375044040
H          -1.13921292454762    1.41013793244364    0.00218550937505
