    26
        -50.44796709  Gyration_radius:  2.60776457981 Dipole_moment: 6.023
 S           0.39221181356681    2.75081505609270   -0.24617123090941
O           0.18709031308922    3.12641815511246    1.13204847693504
O           1.54250152846500    1.91688722125667   -0.49817288537052
O          -0.82989050634352    2.17783911802292   -0.83664803479872
O           0.64555986350192    4.10788514046771   -1.03860809801618
H           0.07494225236249    4.72514868309978   -0.59053368288721
O          -2.08052865019283   -1.25825442608744    0.00814166541586
H          -2.93427139139197   -1.65859160496523   -0.15938118662379
O           1.57377640674684   -0.49205964008973   -1.45785504275951
H           1.74783600227235    0.45873344339088   -1.25458139966407
O          -0.37317455971025    0.58361003870634    1.60633329736256
H          -0.18506053663635    1.53953541405040    1.52069835920894
H          -1.19329450645162    0.40968695678474    1.13380018450672
O          -0.83215517402352   -0.04844579605164   -1.89138820809785
H           0.19976011088191   -0.33066632862333   -1.78047744702971
H          -1.35891497928825   -0.55728386151616   -1.19303336494392
H          -0.84314400986447    0.95135856973761   -1.52611815959678
O           1.61091021460962   -1.08828675098465    1.14509410459582
H           2.40494342399987   -0.65439108888293    1.46259456542794
H           0.87162487585097   -0.46489385113542    1.36163527296703
H           1.62692707169546   -0.91147571556180   -0.56887553384985
N          -0.40310441301358   -3.16591108089116    0.75044927284195
H          -0.66525441779659   -3.69360669257527    1.57337418519258
H          -1.46553327460771   -1.98695754698483    0.32854440912457
H           0.41762867585887   -2.61420277570778    0.98945823055939
H          -0.13138613358676   -3.82289062666470    0.02967226042055
