    26
        -50.46461195  Gyration_radius:  2.53561605345 Dipole_moment: 3.097
 S          -1.93585392751188    0.65985241243652    0.51436414185795
O          -0.83421773881820    1.32848650561933    1.19545021877385
O          -1.87511387233428    0.84698497766497   -0.92993853559809
O          -2.07378644688808   -0.73196742514549    0.88272948821163
O          -3.24759652566111    1.39648028901014    1.01291222635910
H          -3.93996856279090    0.80515717591636    0.73531355804734
O           1.90009948108175    1.14933585508943   -1.52068453643492
H           2.57369629721936    1.57948411749576   -2.04800282280768
O          -0.11145489867716   -2.26357454886337    0.01504424000256
H          -0.93858475367225   -1.87838781151178    0.38146638772437
O           1.74919478296625   -2.49555809791889    2.20494506768190
H           1.64278523302001   -3.11440841812078    2.92803954305968
H           1.12124055792593   -2.76469398487301    1.52037726026961
O          -0.08714852391724    2.77104789899709   -0.98342158643873
H           1.17969967750549    1.82502270476236   -1.37623745437016
H          -0.83137142687386    2.16627130636875   -1.18619755856514
H          -0.12325032378571    2.82683158275156   -0.02053761350707
O          -0.12453183245937   -0.78505832380853   -2.18871821712464
H           0.65035822382365   -0.20708485711767   -2.18666980118230
H          -0.13218838525963   -2.01599061870012   -0.93604989186162
H          -0.86254897878514   -0.23052042752315   -1.87437278200961
N           1.28864647475355   -0.15827248955606    0.78169689442762
H           1.90166523499890   -0.41919762442428    1.55239430058803
H           0.50414604964793    0.47619810133857    1.08963465629809
H           1.78900428131367    0.28837144364072   -0.00577912015134
H           0.81707992311963   -1.05480973351566    0.44224194681634
