    26
        -50.45549973  Gyration_radius:  2.44729075352 Dipole_moment: 8.157
 S          -0.13394293879613   -1.35507475368486   -1.80011816615436
O           0.61066799954032   -0.16525583193738   -1.36742529577567
O          -1.55195234744973   -1.20098478086342   -1.38399553726523
O           0.01923913914727   -1.70141877234384   -3.16794362722374
O           0.43956376879159   -2.52815324907751   -0.90938085218946
H           0.66146606869163   -2.12931767121313   -0.04727400993792
O          -1.19400851897979    1.94023130997382    0.99704454124852
H          -1.51589929392891    2.80666351611469    1.24762027060599
O           0.88410905170384   -1.49502095463604    1.55091126215487
H           1.55164432092785   -1.96520679404057    2.05175033932415
O           2.76102147671796    1.23546225116075   -0.70605403977447
H           3.54155824918794    0.76363111953792   -0.99905408081523
H           1.99719642055548    0.76058161744564   -1.09021157372878
O           1.41090435370664    1.02110595432906    1.61031185585751
H           1.99394462491956    1.20114195649160    0.84324285113000
H           0.56927047535472    1.45699786148531    1.40241710094871
H           1.15484495183563   -0.51859125861118    1.55780308133080
O          -1.28152853926740    1.60065554952677   -1.58051313654877
H          -0.46725315402918    1.04545750246521   -1.60607951875662
H          -1.97581626194454    0.99101915609521   -1.84889726802491
H          -1.21528238893672    1.90772504066427   -0.00387566969645
N          -1.67031372691844   -0.73525160758221    1.08366784275650
H          -1.65454415176489   -0.95144481860439   -0.02616095610155
H          -2.50754062622582   -1.11207756333419    1.51291093338232
H          -0.81727433853344   -1.16600917856651    1.47409814525869
H          -1.61007461430959    0.29313442920608    1.20520549799654
