    26
        -50.45549989  Gyration_radius:  2.44717262641 Dipole_moment: 8.158
 S          -2.18981483264198    0.48918699279983    0.23024548062555
O          -2.20523296192032   -0.90316393240944   -0.28839258342386
O          -0.95467667216345    1.14162349090110   -0.22375381116387
O          -3.38637825471883    1.20453166460992   -0.03592274131638
O          -2.01494152471495    0.35256141103657    1.79512178273348
H          -1.06320629479850    0.20387948242600    1.94933002620122
O           0.58462641521027   -0.24719130019232    2.24157871601028
H           0.89341572129304    0.00577898572943    3.11232558330077
O           1.52221001696242   -1.14403084504845   -1.59984068210535
H           2.11766664502884   -1.37901038480639   -2.31213150049611
O           0.98896821000029    2.94141216082782   -0.15607525130146
H           0.19772932231770    2.37678899960021   -0.26435918983346
H           0.72280873351328    3.66538353192819    0.41206282643828
O          -0.66723351225956   -0.06792372838510   -2.50363618144062
H           0.73312690920784   -0.69710127878154   -2.02494679412284
H          -1.42787913063849   -0.65105768401320   -2.41982373609950
H          -0.76367525623858    0.54559006639644   -1.73798962642524
O           2.23176853013051    0.64154336154354    0.47822385233942
H           1.92340243727295    1.54026171941424    0.23767129826896
H           1.23119192766613    0.16243319674138    1.57760788238248
H           2.07389890421339    0.09566110316639   -0.30831176249704
N          -0.08971785342380   -2.08739541381686    0.37618775137848
H          -1.05611814168837   -1.58779380173480    0.06686320768694
H           0.61174861715941   -1.90325148219035   -0.36539571574717
H           0.21336426257633   -1.61745086327293    1.24383332025793
H          -0.22705224734529   -3.08126546247085    0.51952785834959
