    26
        -50.45549980  Gyration_radius:  2.44724900437 Dipole_moment: 8.163
 S          -0.67762373074427    2.00848179273432   -0.77093383674069
O          -1.55712929300951    1.78117386941532    0.40492611174169
O          -0.26664243236250    0.70316022205938   -1.30443559313989
O          -1.22757442742372    2.90654960632008   -1.72250544504228
O           0.65068270709955    2.63522497674758   -0.18706427659675
H           1.17518682768585    1.88794603235518    0.15656083860518
O          -0.97291179307700   -2.10173062116532    0.90643460662587
H          -1.35756857643923   -2.96889054055515    1.03740678228165
O           2.04213127724916    0.60871193902374    0.94196614858506
H           2.98503732823405    0.76985554862907    0.99194224600908
O           1.27449826271049   -0.97043300297627   -2.66261002988050
H           0.63428357279499   -0.33127426296026   -2.29077951127065
H           1.84984181420347   -0.46538533792997   -3.23850678297948
O          -2.39785735868972   -0.66397981065541   -0.72791324144739
H          -1.61582556568202   -0.20748623949944   -1.11780575917425
H          -1.54943470774969   -1.63368313502563    0.23438453527909
H          -2.87045989856195    0.04483775129307   -0.28079291486281
O           1.64240673908576   -1.70720593946029   -0.10172956240830
H           1.92798037793066   -0.28711311175503    0.48252068702393
H           0.74580238916330   -1.95435527667197    0.17494992833569
H           1.58729507760807   -1.56958284511354   -1.07059242408612
N          -0.39877079467514    0.29020482601662    2.06469912409410
H           0.60829763854144    0.45242785468355    1.90635919290147
H          -0.62337249796196   -0.68916827609083    1.80718742192667
H          -0.66247791941809    0.49274656912424    3.02210863264311
H          -0.94579501651346    0.96896741145660    1.34422314157652
