    26
        -50.45549980  Gyration_radius:  2.44719634357 Dipole_moment: 8.156
 S           0.89698489958457    1.58883016467553    1.32765209714177
O           0.63856463934773    1.35993414442766   -0.09998359984007
O           1.39839161937925    0.32398279127962    1.92468685508757
O           1.70943661320274    2.71432979251474    1.62344893970095
O          -0.53446314884667    1.81256859822448    1.95949289359585
H          -1.14552429145491    1.24677988501732    1.45152552680644
O           0.64158994759570   -2.15203089326851   -1.06816669927145
H           0.96187247145665   -2.84608300485720   -1.64508402282183
O          -2.21873633602244    0.11233134567772    0.69839552530942
H          -3.13345842031597    0.39637058848425    0.71032114918151
O          -0.45826060740166    1.83361315220721   -2.46560509191954
H          -0.83609644529949    2.71395967061356   -2.46249183644427
H           0.05239542764179    1.75496015457045   -1.63519984660888
O          -1.56382635393995   -0.49989632571079   -1.71174915707324
H          -1.98755409515036   -0.07076485516264   -0.27095463558680
H          -1.22782730354526    0.32247649071360   -2.12579137827667
H          -0.78970286613004   -1.07781362617471   -1.62069546273705
O           2.49418982681042   -0.39397635156574   -0.57413327780093
H           1.39289854445594   -1.49730961236898   -0.96697667834624
H           1.86388406907900    0.36308751508408   -0.53596556424390
H           2.82739902235714   -0.45256575782403    0.32658321852289
N          -0.21240398726159   -1.54449809551223    1.44056486514944
H          -1.12758940752412   -1.08046552607594    1.32788593023667
H           0.06465222963080   -1.96069856201843    0.53170299086092
H           0.52938571133709   -0.72635676723363    1.68387511261664
H          -0.23620174898705   -2.24076489571659    2.17666213676134
