    26
        -50.44980282  Gyration_radius:  2.59218481647 Dipole_moment: 5.062
 S           1.05282680813044    1.34392816966999    1.66186399304464
O           1.27419938032885    1.61284259581862    0.25423876204865
O          -0.36886081654627    1.16523615694796    1.95837584893568
O           1.85667271742531    0.25647038430517    2.18054612652087
O           1.49781777270031    2.64365669107161    2.45435766758563
H           0.89322569040309    3.32317835109592    2.16659949622633
O          -0.34955340201099   -2.23666573698248   -0.11608157810352
H          -0.14571372150820   -3.11550773806569   -0.43868471366444
O          -0.19949477972822   -0.01323752491495   -3.30925010484696
H          -0.27260630654893   -0.52620978824057   -4.11404798069167
O          -1.03236339360654    1.95450406097141   -1.09233118332485
H          -0.68744525150961    1.97131578116365   -1.99043265630478
H          -0.24986719929227    1.86955617755144   -0.51755366224317
O          -2.13043799126026   -0.48367828794292   -1.52864267558131
H          -1.70274418751559   -1.10066407730396   -0.92073262081707
H          -1.95412112949322    0.41410189142216   -1.18019054695726
H          -1.00492057062755   -0.21340430197961   -2.77105414023337
O           1.36739313665960   -0.66055380337726   -1.17750275693091
H           0.34965158504239   -1.62318360707493   -0.52741739312537
H           0.95217563048965   -0.37657271465546   -2.01816893147929
H           1.46848207214251    0.15518832497201   -0.65006073898850
N          -0.14433493968147   -1.32388871667497    2.36118709257342
H           0.86088944628899   -1.01147916229498    2.43208069138213
H          -0.47453445088121   -1.84265786452683    3.16691685029843
H          -0.57311242384974   -0.34959282283848    2.26620678580186
H          -0.28322367553074   -1.83268242811534    1.44977837888096
