    26
        -50.44057491  Gyration_radius:  2.46886341533 Dipole_moment: 6.446
 S          -0.99558561858828    0.83988725059003    1.44491539834551
O          -1.77456786266019    1.09142664623994    0.20846166328342
O          -1.67476511058267   -0.08683828878960    2.31383493716663
O           0.35992071755686    0.47268066745030    1.12455905160099
O          -0.94133462564259    2.23303139557841    2.18279024383126
H          -1.85503576052678    2.43597576461961    2.35803940978047
O           0.20256133021796   -2.26416205059428   -0.79286002533584
H          -0.22389065086782   -3.05057479568023   -1.13725719248908
O           1.30087965539897    1.18617273270571   -2.21229594011966
H           1.77121772049854    1.16909701790160   -3.04672602392791
O          -0.36126538247357    3.25226242770123   -0.89746594363585
H           0.36368399537910    2.75024179328134   -1.28273456180341
H          -0.91856639052220    2.61384056739329   -0.43650159661427
O          -0.84622983271260   -0.11801226345890   -1.71002227613524
H          -1.30514722993615    0.41403610502090   -0.87705964088062
H          -0.05642122389842    0.46081559575894   -1.99631342611606
H          -0.44459769962500   -0.98178464796456   -1.32979777553084
O           2.33092194311878   -0.39829796380136   -0.43174733758342
H           1.91174094204802   -1.24576882240640   -0.62716025611511
H           1.84106420498141    0.66693053253600   -1.54837440675434
H           1.78754785423730   -0.01831578272639    0.28438828705063
N          -0.11099941357189   -2.32714674572177    1.76858437588570
H           0.07550151047051   -2.28778326201725    0.23194569669957
H          -0.47182067683771   -3.15909265721915    2.22012852460389
H           0.77652987317650   -2.09893650831898    2.19990164043689
H          -0.74134225863910   -1.54968471807925    1.98876717435660
