    26
        -50.44334431  Gyration_radius:  2.72023237121 Dipole_moment: 4.394
 S          -0.96096456119860   -0.95854334247797   -2.68889083909260
O          -1.59960864133107    0.35162707066288   -2.46402880620753
O           0.46493629200815   -0.80008247982096   -2.90967460184763
O          -1.28951480134471   -1.90845508328720   -1.65452684757510
O          -1.57852076402331   -1.50162808383350   -4.03742471260692
H          -1.26049815726491   -0.86954396896231   -4.67473809708267
O           1.79036700358384   -0.95393362505494    1.10257526305369
H           2.41848589405263   -1.52753528876563    1.54137892982580
O          -0.62023527186546    1.22228147100222   -0.38076411481769
H          -1.11502863353232    0.96179667406593   -1.29043354904850
O          -1.55701833017005    0.71163686815995    2.81543254480713
H          -2.28494575097972    1.23129355244203    2.47048347498699
H          -1.51239601492922   -0.08905997268145    2.27261875496446
O           1.68793107470390    0.63237027926573   -1.11399537172133
H           1.94015188654411   -0.02047883372763   -0.43474775781331
H           1.37106401348813    0.10280213245777   -1.88907709138605
H           0.40602161958018    1.12506664905648   -0.65132792078363
O          -0.89843333604488   -1.03590842738737    0.75370217367653
H           0.04114754383033   -1.25298247594341    0.91163948085921
H          -0.79236538693070    0.39245212452752    0.20920933405209
H          -1.14180291586765   -1.49563247518461   -0.08909988247588
N           1.29980363215098    1.23009271504817    2.50172998304146
H           1.66849791087047   -0.13903790322313    1.68393439972140
H           1.80594405295819    1.39460478884818    3.36245666803925
H           1.40696957609121    2.04982201079596    1.91689212875577
H           0.31001209573055    1.14697561391665    2.73667644665998
