    26
        -50.45582954  Gyration_radius:  2.45858974122 Dipole_moment: 2.246
 S           0.86635350689669   -1.75491684692493    0.35782843543772
O           1.62651867646788   -1.04727058550474   -0.65688658430788
O           0.71020444257270   -1.01829562095914    1.58780137372220
O          -0.40717576331707   -2.23883370128526   -0.17957459261516
O           1.69925947048931   -3.05416934613266    0.71124634236912
H           1.72746301670449   -3.49915644978758   -0.12924218948999
O           0.14183075739179    2.45877154091849    0.15336458751590
H           0.21270737761579    3.41159425220190    0.21746337028416
O          -2.48386061265431   -0.95013326529640    0.29718121666794
H          -1.66597917573172   -1.57773529320741    0.15556095516054
O          -0.04003497380624    0.64225285184619   -1.91580493420136
H           0.57692286729987   -0.02658717119927   -1.56069641590276
H           0.01136766486363    1.39590347325446   -1.30464267010873
O          -2.54534706795141   -0.02300846077477   -2.05296716982802
H          -2.61806870041857   -0.72605543106415   -2.70080146588503
H          -2.63492774293079   -0.54208820059878   -0.64290469655579
H          -1.59096377072189    0.27749912090941   -2.07716246032847
O          -1.25757500765233    0.72348161795758    1.68332291604185
H          -2.09155723635189   -0.18285173528150    0.91556720051372
H          -0.50007616594565    0.11319426934759    1.83278538632555
H          -0.89432946643415    1.44594313876962    1.13116821477116
N           2.35384797064590    1.23216355222404    0.87241503211712
H           2.25924168058970    0.42832828244070    0.25018138479149
H           3.30520554846928    1.57203826646228    0.80473177253608
H           1.02697630995481    2.07241040704638    0.44270006505778
H           2.21199639394977    0.86752132464522    1.80736489591333
