    26
        -50.44683690  Gyration_radius:  2.46790034041 Dipole_moment: 3.590
 S          -1.66266786011552    1.10024506579217    0.13032158766721
O          -2.12482505347166   -0.12972680709131   -0.52874237917700
O          -2.35698824030528    1.37546760193686    1.35387261989970
O          -0.21699259216756    1.11220177136827    0.20931362910564
O          -2.02658763205034    2.28335292402772   -0.88163802957358
H          -2.90434518299905    2.54628495605222   -0.62088178802092
O           0.66837261385931   -2.28390205017917    0.65261500235382
H           0.48264419282129   -3.21561734126881    0.78037771911184
O           1.23615130226548    0.20973675864456   -2.75941424865263
H           0.73583242215100    0.75753053308209   -3.36675633797554
O           2.17761365682536    0.11551050143857    1.19086689638590
H           2.08853516124846   -0.82514497739597    1.01054528301746
H           1.29189632540809    0.48383047213667    1.05325650233903
O          -0.28931805102244   -1.40540267785965   -1.55256491869137
H           0.18107580918646   -1.76890854687184   -0.72355272441410
H          -1.11153223677494   -0.84410254314806   -1.16007892048813
H           0.35453453729373   -0.74855253438401   -2.03752010464659
O           2.06840659522701    1.88587295279308   -0.96436888088983
H           2.58174404370899    1.40092304138993   -0.29925660881378
H           1.65278818739211    0.84153866240913   -2.09881175318399
H           1.17974285846628    1.93499354086447   -0.57115079290966
N          -0.87156234917214   -0.93320145231084    2.29931163565863
H           0.07429153974251   -1.77361751462642    1.29790200857738
H          -1.36776456445628   -0.20330600986372    1.79085916963782
H          -1.56464590013861   -1.45445498703955    2.82388257199741
H          -0.27639958292016   -0.46155134988798    2.97161288169028
