    26
        -50.44683689  Gyration_radius:  2.46797153498 Dipole_moment: 3.590
 S           1.18627873383051    1.52501049667677    0.50987968030849
O           1.11563836785713    2.22213036129228    1.76041825459007
O           2.09176057863032    0.36761745574981    0.54718458066873
O          -0.08368293726164    1.14732736799169   -0.07404282053574
O           1.83662700438827    2.53565296505819   -0.54459506369496
H           2.41242847215600    3.07998758894397   -0.01570287475323
O          -0.56626926975252   -2.20142495324029    0.96015201764828
H          -0.33752382433537   -2.99877364583557    1.44058653821388
O           0.31801496352333   -0.70076370472592   -2.93183162611733
H           0.97113344414531   -0.16791415113744   -3.38876809934724
O          -2.47056656856891   -0.26316201822441   -0.01058978053128
H          -2.16649178540338   -1.15745554068552    0.17126620691308
H          -1.70194296888799    0.30330580815038    0.15499899290282
O          -1.54258553977288    0.99887434982019   -2.32103200909375
H          -2.24554584327466    0.53282900229071   -1.84179164690821
H          -0.99416464461199    1.37235015910754   -1.60932903127154
H          -0.46268005675241   -0.09201472703527   -2.76104492748473
O           1.23743536671607   -1.54863464659913   -0.73459688325551
H           0.47044888657775   -1.85621026220581   -0.13648655517932
H           0.84070206517187   -1.20905808180921   -1.63374339176485
H           1.65513023224694   -0.71296403636975   -0.21285766669598
N          -0.28953382258420   -0.17312965364507    2.60835072078023
H          -0.46302176777430   -1.42703559609785    1.60778780410944
H           0.28358763181495    0.54952557194049    2.17613121168932
H          -1.20451133972400    0.23767553890548    2.75924944269430
H           0.10933464165528   -0.36374562833513    3.52040692611719
