    26
        -50.44582836  Gyration_radius:  2.56345930785 Dipole_moment: 2.749
 S          -1.17047746120194    2.12200316088335   -1.07201140758455
O          -0.93046658653560    2.70317534721127    0.30925918721605
O           0.05865540103917    2.05866248933454   -1.80992392751903
O          -1.93291740505287    0.91515212222444   -1.00813730767852
O          -2.06599938906172    3.23005314079248   -1.73914314063063
H          -1.46041365070767    3.94458804449004   -1.91663967052096
O          -1.68669084318280   -1.06339030465289    1.05801812095456
H          -2.45710329886103   -0.57657565055578    0.75285134624124
O           2.14542071015573   -0.19919790951401    1.08210683052993
H           2.91928065747993   -0.19804329460008    1.64635020019638
O           1.68295833575364   -0.12471618361843   -1.67417865903391
H           2.02387121033779   -0.03959959295759   -0.77169961644700
H           1.22317844903287    0.70981130472985   -1.86340728788764
O          -0.16331642637673    0.92586479771864    1.82207279880180
H          -0.58666307548742    1.94062913147720    1.00876060063533
H          -0.76054742946137    0.15006386953463    1.62620778387421
H           0.73820495302565    0.63676586185296    1.55284442307411
O          -0.57616281262623   -1.50093939663091   -1.34064993747482
H          -1.19315887707572   -0.81079198241084   -1.61573367882681
H           0.31249152111491   -1.11734378460310   -1.53179023549577
H          -1.23507137195528   -1.33537793086858    0.22380532754161
N           1.00123809528498   -2.59217354673306    1.07516785763125
H           1.77115981275892   -1.13249307810297    1.09358212450758
H           0.19120677849747   -2.53952565447646    1.68248310256225
H           0.65120752346249   -2.65923275995035    0.12458317972968
H           1.50011519964261   -3.44736821057743    1.28522200560795
