    26
        -50.44683689  Gyration_radius:  2.46791809705 Dipole_moment: 3.589
 S           0.88213643632131    1.11097479234297   -1.40718714655158
O           1.49834204736090    1.59376715685883   -0.16306057108844
O           1.83957019419300    0.61166716385354   -2.34995588265498
O          -0.22601061358041    0.22889476811023   -1.10675014979161
O           0.20980981972439    2.39990248015923   -2.07272540560096
H           0.89846447164595    2.75846237304750   -2.62484113068371
O           0.75957421375525   -1.44680133846370    1.84920279078068
H           1.36996776244140   -1.66706645865138    2.55477507685477
O          -2.26387712675099    1.51470888597619    1.32920064216592
H          -2.37428249985561    2.40947051964979    1.00283354855543
O          -1.24566204200658   -2.14714921228775   -0.10365483034026
H          -0.77039378662064   -1.44553192741192   -0.57364514418278
H          -0.84151688259246   -2.18279284870771    0.76850422859874
O          -2.87316521699292    0.03714072499294   -0.71271066498240
H          -2.58156905804817    0.91169685305157    0.59119095651168
H          -2.02479507000619    0.24615186747053   -1.14091919506974
H          -2.77507807757892   -0.89515045511830   -0.46315486389503
O           0.16887229970437    1.04368955986848    1.83063774770173
H          -0.83652379566412    1.21729554102579    1.62967170521096
H           0.31877174400333    0.03654828377253    1.89273468230439
H           0.74005742713145    1.33952393462812    0.97553409555631
N           2.09393983203327   -1.53643185720891   -0.41321207272060
H           1.94355820434886   -0.67739603777857   -0.93949681047884
H           1.71060125118235   -2.28870698778388   -0.97520338738297
H           3.09566982602696   -1.68099851091705   -0.35906078578545
H           1.28353863981598   -1.49186926046581    0.98129256695931
