    26
        -50.44582830  Gyration_radius:  2.56343735091 Dipole_moment: 2.750
 S          -1.81384086209289    0.49783765945946   -1.86654351870041
O          -2.50153393490914    1.22035093573161   -0.72273442387688
O          -0.68959172518822    1.25657293644844   -2.33522371596052
O          -1.56339038881118   -0.87219400794543   -1.54669690113065
O          -2.91586290019119    0.54336696699123   -2.98825883864006
H          -2.91171369245267    1.44987749069928   -3.28325924555594
O           1.21412169150968    1.52370740812243    1.42115023613236
H           1.54454545848201    2.14239705578788    2.07325378493422
O          -0.80675818408690   -1.82546072239946    1.05445207195048
H          -1.54232970781791   -2.07809283738113    0.48988463646033
O           1.79000003242372    0.93929002476970   -1.25158299073189
H           1.65860493545672    1.34177520667386   -0.38057276580510
H           0.99793620368010    1.16151956063902   -1.76817395039664
O          -1.33436043943829    0.71966969485425    1.38041427444428
H          -0.44387774851319    1.13886487520510    1.36657846350870
H          -2.00782302528312    1.02200760940990    0.22892624396310
H          -1.16529251423814   -0.26380344691358    1.34857476378134
O           1.04567512900066   -1.59197155084799   -0.86728087723856
H           0.27064172499931   -1.59097322980955   -1.44350480276123
H           1.46181209933537   -0.71133122910777   -1.02448226237564
H          -0.04001657348502   -1.77997690803310    0.43489646577112
N           2.00521441621222   -0.94282736405865    1.99154980092553
H           1.21672971559239   -1.42158499036223    2.41209831300768
H           1.56662035194249    0.61500050786295    1.66870716457666
H           2.83063803708733   -1.14927934564130    2.53958185668413
H           2.13385190079223   -1.34474231015418    1.06824620703526
