    26
        -50.44582830  Gyration_radius:  2.56333802213 Dipole_moment: 2.750
 S           0.18877824776150    2.64264702608861    0.03626258509824
O           1.13518226729654    2.36000029801155    1.18848272054519
O           0.81079390216229    2.31671282269681   -1.21519296823439
O          -1.10276093526303    2.07639610220859    0.26714077317413
O           0.05400153300269    4.20850864603320    0.10386164724803
H           0.88743090828727    4.52947607012098   -0.22955274355513
O          -1.56791893741582   -0.44456369654166    1.56285776425708
H          -1.90136013528998    0.43205897700013    1.77252845079610
O           1.72873839746497   -1.67053960287861   -0.18925280812485
H           2.44976989354358   -2.29407144726190   -0.09678352542897
O           0.63089657865872   -0.18231589077753   -2.28597464126111
H           1.19504343105054   -0.67990174698309   -1.67598594013622
H           0.77464619866929    0.75484259434391   -2.07457251129183
O          -1.75770058485926   -0.26376425346416   -1.10371467125472
H          -1.66354149539952   -0.50401130234946    0.58249459388139
H          -1.84184525688386    0.67874824367573   -0.91044992886087
H          -0.93605736205660   -0.32424217230379   -1.64650275142689
O           1.00761130234838   -0.01989430651938    1.78517746829895
H           0.03144079110149   -0.22909605737638    1.78686714773356
H           1.38982240250346   -0.55955598024830    1.05608688167275
H           1.10624869015926    1.30981109367288    1.47965193995255
N          -0.60734037110685   -2.91600768217541   -0.02832275935332
H           0.87335059875206   -2.19794034523991   -0.15045461659184
H          -0.73076570388615   -3.89656725585217   -0.24622149080387
H          -0.97369869090468   -2.74868659394715    0.90199041201463
H          -1.18076564969016   -2.37804356993610   -0.67042100834746
