    26
        -50.45476190  Gyration_radius:  2.60440031356 Dipole_moment: 5.751
 S           1.11083036628885    2.34877400831331    0.41168578920266
O           1.74180371426138    1.09507976488389    0.74797236347539
O           0.90381547626683    2.56160088896754   -1.00586883875465
O          -0.13479428641742    2.51676186231771    1.17619873132261
O           2.08107998891612    3.51311103847667    0.88782979565557
H           1.79139959951595    4.24244815261933    0.34843256246848
O           0.12673095085419   -2.33107106098160    1.38089875236124
H           0.37594442790622   -3.13563250797458    1.83563376579947
O          -2.09282871466123   -0.18923547300310   -0.97283830756316
H          -2.74478111684317    0.41793501599040   -1.32396669634100
O           1.82543752231870   -1.17875010463579   -0.60027166280212
H           1.42830955718459   -1.70686835088500    0.10543614191929
H           2.03002383817834   -0.33048727812371   -0.15982672918138
O          -1.01300777751479   -2.73829447524444   -0.97824764708191
H          -0.27520366722516   -2.57322707559525   -1.57356511815411
H          -1.60091267738408   -1.97165287278860   -1.06938062079082
H          -0.36584424095924   -2.59834762415847    0.56620432529985
O           0.13575527842882    0.28041637472102   -2.09436097279675
H           0.80063819651905   -0.32100178794323   -1.69289684536702
H          -1.22144871615616    0.02531404645325   -1.46571977217935
H           0.42218370122785    1.17853060933904   -1.81648097363564
N          -1.06854045691212    0.16598479001170    1.47661784212580
H          -0.34933675891190   -0.56419239508679    1.57903761696995
H          -0.62072007188336    1.16202275894474    1.41666183218226
H          -1.56998855204079    0.00877918813054    0.56421097874697
H          -1.71654557098258    0.12200248727096    2.25660371709673
