    26
        -50.45476203  Gyration_radius:  2.60440221254 Dipole_moment: 5.756
 S          -1.01148499285556    1.88725320269290    1.52829654589213
O           0.22646128697375    2.02587881737463    0.79920293422191
O          -2.19209786388966    1.76060305959054    0.69912318150850
O          -0.91069707396898    0.79179449912114    2.50517473554440
O          -1.21638446435140    3.21567249398238    2.37507456592345
H          -2.15499593429699    3.20409063477917    2.53456157076857
O          -1.08245148283667   -2.02648395078689   -0.28664514694143
H          -1.90111862614337   -2.41732537993560    0.01998331002379
O           2.56020170958290   -0.71390034558073   -0.54435033611671
H           3.48103713631005   -0.77144860049982   -0.79909245559684
O           0.84170117344685    1.27140326299788   -1.65986948972541
H           1.58635799084982    0.71613606745789   -1.39191813335662
H           0.62930523331896    1.77197375620497   -0.84763781416225
O           0.90427089499492   -1.94048138454231   -2.21267539675153
H           2.04805705595150   -1.27545558341569   -1.17700024574978
H           0.56822584640369   -1.19699471783277   -2.72284917230772
H           0.17518113333596   -2.21251384123434   -1.63296559004398
O          -1.60888212149599    0.21267751131674   -1.36076621036856
H          -1.34682242076147   -1.14009608865536   -0.72579646075410
H          -1.94720956900512    0.80619377526885   -0.65431155967583
H          -0.75561817417462    0.61815266217913   -1.63009425071964
N           0.64173129329065   -0.92521079983700    1.44233667061095
H           1.38786614538225   -0.51803072138500    0.86060860651258
H          -0.01434502824044   -1.45614665912714    0.81283674289949
H           1.04738141246706   -1.53960546916595    2.14104346251217
H           0.04432943971120   -0.14813620094865    1.92772990585338
