    26
        -50.45472163  Gyration_radius:  2.51425468219 Dipole_moment: 7.545
 S          -0.03322154128573    2.06771227585439   -0.44301799398354
O          -1.03491324045764    1.42893300114792    0.41846275300328
O           1.25289680383679    2.21396844000072    0.17009859932736
O          -0.02733004593044    1.43284934987988   -1.75963305075991
O          -0.57836245106745    3.54242388164594   -0.69825006959383
H          -0.00179029878383    4.08001952006923   -0.16456618252237
O           1.53242699047746   -1.04943250698477    2.93565957884503
H           1.67280688275167   -1.95806520889134    3.20459173324805
O          -0.86017179900689   -2.19675715545979   -0.71828372517387
H          -0.80982046491045   -3.09925977462672   -1.03449483857485
O           2.64965272403015   -0.10824971739289    0.62426454524253
H           2.31845268019441    0.80125226635939    0.55035111109639
H           2.35668766498379   -0.42409304565777    1.50085182045829
O          -0.91975867875515   -0.92822122301962    1.81813953740489
H           0.59817583912090   -0.98649929133297    2.64174972570212
H          -0.93869189032803   -0.01513995354471    1.48882134452205
H          -0.89725667717327   -1.49546805011898    1.03440863088809
O           1.24904086700697   -0.95075080152982   -1.41705500025318
H           1.87326239183655   -0.76560745700937   -0.66484750321712
H           0.02557223629410   -1.75987172305387   -0.97052533662256
H           0.94374433334827   -0.07140208086036   -1.69403618236238
N          -2.12740533085021    0.02574192776631   -1.39124957544252
H          -1.81921769206190   -0.96567762332731   -1.21768800950798
H          -3.05497113109961    0.09911570633133   -1.79286858212412
H          -1.99660018900132    0.56384481249898   -0.48155118899940
H          -1.37320797298666    0.51863444114428   -1.93933212054159
