    26
        -50.45472124  Gyration_radius:  2.51413701258 Dipole_moment: 7.548
 S           0.68395887425060    1.98124833666154    0.27915098642306
O           1.52756083339001    1.53029028635204    1.34517019891068
O           0.87457792982462    1.25138275003381   -0.97983563639791
O          -0.73928290424901    2.06105116319325    0.60134624566158
O           1.12062408829687    3.48039846986212   -0.03507632127812
H           1.96495001697056    3.55395547539765    0.39857051266318
O           2.21718904604929   -2.61832798128001    0.53743861420913
H           2.00617114410514   -3.55234942463410    0.51144544720965
O          -1.89808929460388   -1.34605116913489   -0.81384340937367
H          -2.61490580460951   -1.97843005374681   -0.75650461416387
O           0.99336809066311   -0.97221057402993    2.34563250749567
H           1.50400089517353   -1.59117779321560    1.78876816123408
H           1.33231611320707   -0.08810316793846    2.13145416206286
O           0.85818441916544   -1.44688479857069   -1.47697234704022
H           1.81800440679429   -2.21949144204479   -0.26548873882101
H          -0.08254352207900   -1.56649832383142   -1.28404200551268
H           1.04760153674720   -0.50776276190469   -1.31999891520134
O          -1.42121555431798   -0.41690580940171    1.50970922642547
H          -1.70746806941436   -1.04898638112339    0.14241297572185
H          -0.57400154157672   -0.75205270868818    1.90959089037476
H          -1.26186380359632    0.53160230613691    1.37568615969366
N          -1.57435580951698    1.14809310719598   -1.63406038162129
H          -0.51226695462147    1.14958800638514   -1.71746416782890
H          -1.62995378856394    1.66202660663273   -0.71523814964002
H          -2.05645936479532    1.60373786996581   -2.40022893232698
H          -1.87610097272096    0.15185802175840   -1.47762244881372
