    26
        -50.44423699  Gyration_radius:  2.55651782698 Dipole_moment: 4.539
 S           0.38426169444875    1.53824159810243    1.72624336401031
O          -1.05297978481949    1.67919745776468    1.61163914767055
O           0.78480440874115    0.44206554628194    2.57782814734383
O           1.04092743234179    1.50265853648417    0.41647220777870
O           0.92820626559598    2.87476378196284    2.39250799096584
H           0.52662312431053    2.87596767351431    3.25584556655787
O          -0.04669688683008   -2.22002560721586   -0.19699600632581
H           0.21403156691820   -3.09954205271299    0.07960861174069
O           1.40050053719223   -0.18208796599117   -2.99842036484470
H           1.69829179391875   -0.81674131183359   -3.65150934566010
O          -1.34790250603659    1.62208571784941   -1.03326248553965
H          -0.51443112863444    2.04633061270255   -1.25598052192748
H          -1.37508580524211    1.65265232164517   -0.05622967578263
O          -1.05439090144818   -0.68572421147515   -2.35353664467607
H           0.41155702849981   -0.32408776344493   -2.88449917926457
H          -0.93429545028357   -1.33657169549034   -1.64957149236932
H          -1.31882382634481    0.15051474238727   -1.90727032009805
O           1.89555985729916   -0.59105856723098   -0.54916412378591
H           1.59648422704611    0.31629337513599   -0.06924874246706
H           1.14810286068818   -1.26784550695297   -0.35868389445532
H           1.81625511213632   -0.38593018809960   -1.56215743785856
N          -1.31552849644461   -1.15724920311221    1.75715568889998
H          -0.60389647750880   -1.82068599459178    0.58297145063695
H          -1.81965500045396   -1.71706271358007    2.43360877050308
H          -0.53775642378632   -0.69285836589510    2.23570610642524
H          -1.92416319129004   -0.40330020619432    1.45694319251652
