    26
        -50.44423680  Gyration_radius:  2.55647551751 Dipole_moment: 4.532
 S           1.40090301270344   -1.87105501416735    0.17858215878462
O           1.43428211333727   -1.67474046323260    1.60951860819253
O           0.19669548216187   -2.53229095946715   -0.28107277341730
O           1.67082438694518   -0.63750080828175   -0.56527162189414
O           2.62023160467436   -2.81952963598538   -0.19517333366446
H           2.45724150643185   -3.60755970570470    0.31382373714988
O          -1.08559624949212    1.33825213380245    1.41458931366420
H          -1.19656027874927    1.74936406751318    2.27289642542224
O           0.48278454382123    2.83218858186176   -1.65213395697269
H           0.31306740508133    3.77348258046472   -1.59583801339792
O          -0.65646961128145   -0.79526082559308   -2.10859736384316
H          -0.45447126041374   -1.50488883477363   -1.46679819844496
H           0.20821354115063   -0.48940556659551   -2.39675801583229
O           1.25543725495300    1.58142596930765    0.40949391506219
H           1.06080975185401    2.13666084444265   -0.44387627898896
H           0.34370406270806    1.47703017015258    0.86882345766236
H           1.51034853405573    0.60987801376503    0.04313421459843
O          -1.73070216108069    1.52954466116804   -1.33616266769059
H          -0.41295012516515    2.37549275583839   -1.66745872876826
H          -1.48531040521515    0.63652491426380   -1.66879060896433
H          -1.76886277070574    1.45378044011335   -0.37367329676770
N          -1.28384159954275   -1.19203775665652    1.75634560622005
H          -0.29758030482720   -1.42269167414578    1.91031341069286
H          -1.53494433652441   -1.67794457316641    0.90205330383634
H          -1.82744409201000   -1.58740753026274    2.51350820860543
H          -1.21981000487646    0.31868819534630    1.55852245874648
