    26
        -50.44423729  Gyration_radius:  2.55660975121 Dipole_moment: 4.550
 S           1.53941422624778   -1.51099866934744    0.91588201144940
O           2.45802893765969   -0.46722645610051    0.50936172503821
O           0.95269373030501   -1.28128816572121    2.21595164524957
O           0.53512121987141   -1.79308987019508   -0.11366601439164
O           2.38023381020289   -2.85642372997797    1.01091253083415
H           3.00374747105152   -2.68365677873143    1.70953278224498
O          -2.30203080722222   -0.50291908524377   -2.33156163501687
H          -3.18973181566148   -0.24073746758918   -2.57910039403256
O          -1.51599851023265    1.43077379002346    0.78964267219050
H          -2.13095354998672    1.72647884295469    1.46228633220653
O           1.43142805144389    0.20641681133398   -1.85226157962930
H           1.89995530801033    0.05681723683641   -1.00703289234040
H           1.10277167235853   -0.66432199827017   -2.09316789047250
O          -0.84688120487689    1.60382729574157   -1.95720081389477
H          -1.74041342695106    0.33116876029854   -2.33626511914739
H          -1.03551999444501    1.80114774129560   -1.03034007459190
H           0.06105594537821    1.22463041012610   -1.97418311483717
O          -1.78891216320699   -1.01706048582043    0.09399949009134
H          -2.05409030707957   -0.92369269403111   -0.90374362464562
H          -0.79805759004307   -1.41806578990969    0.07017827417902
H          -1.69236565598954   -0.05298148261503    0.43197938600598
N           0.82098989015385    1.45397403809664    1.83716240882997
H           1.55515040043340    1.50875331850210    1.13927830032668
H          -0.56871549872861    1.49440408146864    1.21006643971166
H           0.86265167126586    0.49222661772956    2.18778214754735
H           1.06042819003283    2.08184373915591    2.59450698710380
