    26
        -50.44986166  Gyration_radius:  2.52911224978 Dipole_moment: 6.782
 S           2.48606344957395    1.00433421466705    0.27633375823654
O           2.46689459041257    0.30650900743711    1.55212986634211
O           1.94370676148948    0.13342560639502   -0.78916549705809
O           1.86019585033503    2.29469952030971    0.28601901023835
O           4.01907733499424    1.19648920765781   -0.06809285625893
H           4.42416630749423    0.55586349179184    0.50758176959646
O          -0.00551297744235   -0.34681920186233    1.88056003421734
H           0.93963341848830   -0.08298016311884    2.02467360728099
O          -1.59727529268189   -1.66266422419659   -1.39229909325101
H          -2.08571759152533   -2.44957534624078   -1.63612061867169
O          -0.33384379079577    0.78117741339107   -2.13201245162261
H           0.59158495095905    0.63491516609168   -1.86790841818096
H          -0.74209764311569   -0.08888669209477   -2.21361758660648
O          -0.71124539670893    1.65808134615100    0.36303344648287
H           0.14108991435922    2.12959113515955    0.44579258356283
H          -0.73313265822261    1.42950685173768   -0.59523668537092
H          -0.39043964526881    0.43099643870079    1.38014164174871
O           0.58361299330485   -1.80303483144850   -0.00717215035226
H          -0.22014728627704   -1.82070717387667   -0.61621187969658
H           1.23817301406698   -1.08849992896774   -0.38713470962212
H           0.24875085403609   -1.25995668259581    0.91689858683333
N          -2.89814705882027   -0.35826822589226    0.49152970099534
H          -2.47217174590154    0.56444988483405    0.47900026325777
H          -2.15286053914433   -1.16109122038318   -0.71100410274270
H          -2.70051760894502   -0.76127455864205    1.40017920241455
H          -3.89984019465895   -0.23628103500794    0.41210258823851
