    26
        -50.45376623  Gyration_radius:  2.46011884641 Dipole_moment: 4.211
 S           1.48018175840914    0.69504900666876    1.11905108991460
O           1.12167494356530    0.19189932561265   -0.18062344905604
O           0.18525672013322    1.07726787239182    1.86791640625137
O           2.27372095670068   -0.18080837235543    1.91532149415351
O           2.20590322094315    2.04896421070040    0.96182521413678
H           1.56068687468676    2.59136054999260    0.43521564874294
O          -1.25525042201509   -2.17978328966627   -0.12629513285363
H          -1.83942586648884   -2.86425674336957    0.20315302823300
O          -1.33450411172261    1.54446238705666   -1.83596307927399
H          -1.75875554967379    1.89866097454455   -2.61851011556902
O           0.16953237926920    3.14540964721806   -0.21763276882904
H          -0.25894655124202    2.56279915700521   -0.87803878348215
H          -0.43448111197117    3.19307175295721    0.52818121910997
O          -1.84314913913458    0.34858143649621    0.56952729063019
H          -1.79292398524516    0.83656639389511   -0.27225006955283
H          -1.66557133209648   -0.59023841964393    0.33544291232850
H          -0.66246807016187    0.76655630009437    1.35899197395478
O          -0.18501203481103   -0.76053203291948   -2.29397070601461
H          -0.69790997990295   -1.40260231082572   -1.78177279096690
H          -0.88146714670949    0.69756760342437   -2.11206968298548
H           0.52928113290992   -0.50286626982698   -1.68765821683624
N           1.09596948822600   -2.66833965312670    1.00353877943212
H          -0.35624624278095   -2.34454873874689    0.29113502625117
H           1.73527826368449   -3.02949577082504    0.30513926552693
H           1.48088609158282   -1.77626376848764    1.31352654735899
H           1.12773971385287   -3.29848122830124    1.79681889941999
