    26
        -50.46584228  Gyration_radius:  2.39850290325 Dipole_moment: 4.271
 S           1.72173043484166    0.63829105634773   -0.39260507310441
O           0.37395823765212    1.46501955200517   -0.42440206013608
O           1.30286669472051   -0.78158235925116   -0.45109888848822
O           2.37513455394940    1.02510130355135   -1.62357963836553
O           2.40048889093832    0.93321135325161    0.84429198055621
H           1.62609437545362    0.27292831837946    2.10677858704199
O           1.05967610770017   -0.04563865229475    2.85705619361332
H           1.51778435857242    0.22157512760209    3.65560548534513
O          -2.29567626463296   -0.76932894702433    0.38937733785440
H          -3.08631473168948   -1.28235952354685    0.55971313642271
O          -1.81326935688008    0.66973410553509   -1.91647812185248
H          -1.37136704021683    1.41483317210358   -1.48844079954451
H          -2.07580779344452    0.08986327787326   -1.17553347764620
O          -0.19944248697546   -2.01167183286820    1.32527363836264
H           0.42925136483647   -1.70294369492771    0.63860647700367
H           0.12332245189593   -1.58375524572303    2.13025833926700
H          -1.52660221815633   -1.31981651949628    0.71321352866054
O          -1.00993202737650    1.28338966001579    1.73212453513472
H          -1.63516768457366    0.62049513918939    1.39297067802188
H          -0.37859998301776    0.81089726645838    2.30957556217520
H          -0.10518484197124    1.46423673164635    0.46222328196854
N           0.49407174308889   -0.29585896689703   -2.78827627619231
H           1.22511452540538    0.45707753798615   -2.68052609409082
H           0.58523660082500   -0.82800566986199   -3.64669857470783
H           0.74453596298029   -0.83459827383678   -1.89968178376746
H          -0.48190186397426    0.08890608377762   -2.62974796354002
