    26
        -50.45276030  Gyration_radius:  2.54800482159 Dipole_moment: 4.932
 S           0.83043621923703    2.57200130041543    0.01395476283867
O           1.77205186760707    2.18982213705576    1.04261693311609
O           1.34556199058431    2.28157352184484   -1.32778689984740
O          -0.49858404782675    2.01479178757295    0.20203909785259
O           0.66579478552453    4.14167730664197    0.09552711026102
H           1.56631795964404    4.44918590447332    0.13457622582812
O          -2.14878793589916   -1.76696907162904    0.19814849508739
H          -2.86260017669341   -2.40444728494770    0.17362486457360
O           0.96265542702824   -0.15539511567927   -1.51915240642502
H           1.22067456433444    0.85977691063297   -1.57748445537684
O          -0.95899185743276    0.01927039266242    1.97185293511112
H          -1.57890164890060   -0.54874614252463    1.49046731977266
H          -0.94234778265767    0.87400876474697    1.50485122414612
O          -1.51001046901638    0.23760983646045   -1.49225822179696
H          -1.35765772117419    1.02788198457707   -0.93142956447742
H          -0.08637444283725   -0.10559151377056   -1.61628357857062
H          -1.90934066759338   -0.44255809527333   -0.91404045168024
O           1.40863810068395   -0.40292107718006    0.93946937626232
H           0.54345768368661   -0.37856852949857    1.43474795108297
H           1.16121522742179   -0.36635274774020   -0.50047143332357
H           1.76105767599256    0.50363171252550    1.08919971724944
N           0.21847559819030   -2.98964944814942   -0.10437469777770
H           0.28338837221734   -3.95852120630878    0.18150733301452
H           0.85891937767333   -2.45444850152055    0.47329214849941
H           0.54860425333724   -2.92443144482114   -1.05993865150954
H          -1.29365235315286   -2.27263138054847    0.09734485610517
