    26
        -50.45450909  Gyration_radius:  2.45143663849 Dipole_moment: 5.290
 S           0.33773818209026    1.98164843234634    0.56212833009318
O           0.22822180696331    2.75422028780146    1.74617732472455
O           1.64527658567023    1.17509778016738    0.63511035923285
O          -0.76788418959422    1.07960878038836    0.29500893300426
O           0.51356277958202    2.88295400933226   -0.67926396070241
H          -0.04040023193930    2.50680326498909   -1.42965028210737
O          -0.33480768047090   -0.86597063128044   -2.60914873125446
H          -0.53627054438626   -1.44420315852400   -3.34572267780334
O           0.37942720529003   -2.29627388690061    1.18705845556295
H           0.81088175666911   -3.00628274468011    1.66406438328282
O          -1.05595079304692    1.74566321081514   -2.37495205704776
H          -0.69652958138598    0.86526671037913   -2.60533300239653
H          -1.72383205273723    1.57779928306837   -1.70185616859747
O          -1.67227620164028   -1.35817210594781   -0.42867887329639
H          -1.12073072621886   -1.92942641129648    0.12668953543192
H          -1.51708454613920   -0.46241578414865   -0.08111829099043
H          -0.93251342432752   -1.13137458976225   -1.85259433878342
O           1.68145996087856   -0.92611435529463   -0.76444925023490
H           1.68440268931516    0.35901736400908    0.01040402757302
H           1.25949724032682   -1.52817205627645   -0.11641629770398
H           1.07417535349178   -0.86968105367136   -1.52466251160678
N           0.14604184452798   -0.16217180444506    2.76992117991141
H          -0.24445559475039   -0.14722721309795    3.70482177495665
H           1.03917053111198    0.31630272324958    2.80400215547122
H           0.28846923259323   -1.53248493429597    1.82742800923323
H          -0.44558960187879    0.41558887307551    2.18103198404211
