    26
        -50.45275997  Gyration_radius:  2.54814072505 Dipole_moment: 4.931
 S          -1.35729926172221   -1.83330286742292   -1.45021488822391
O          -1.70274280444416   -0.75977282571503   -2.35526253802991
O          -0.03469529919752   -2.39086693917879   -1.74982962784602
O          -1.47411802848988   -1.47457821398419   -0.04668586342156
O          -2.39598176233015   -2.99890487284681   -1.69549291072770
H          -2.40626997370784   -3.07942070618460   -2.64442474393333
O           1.48094228404999   -0.71100069685467   -0.74852311339225
H           0.97811609957409   -1.48474109623553   -1.24780675974531
O           0.41036373190488    1.17187358454769    2.49794736212005
H           0.64678181206378    1.54161722420990    3.34876990787540
O          -1.74599619994692    1.10173873563412    0.73751401790991
H          -1.17952066588356    1.14305928547748    1.52236216014541
H          -1.89447647567631    0.15765890530060    0.54880002082724
O           0.65707242127049   -1.33609387985330    1.53195342550085
H           1.28478976689743   -0.95590213329500    0.25820445520535
H           0.52773137439962   -0.50751396358480    2.03508081954447
H          -0.21095925455549   -1.56103781108218    1.13429386213652
O          -0.15685060066905    1.09732923281221   -1.34191217815539
H          -0.73290212230691    0.55129288548738   -1.92369061239214
H          -0.75050000053189    1.27260651582204   -0.55999373414622
H           0.87019895190836    0.12271712451879   -0.98042080567774
N           1.91762263397831    2.23910146772536    0.55357293126951
H           2.29281511080376    3.16628059531852    0.70916921016193
H           1.30142975963969    2.28719585222605   -0.25156652028797
H           2.68799274941536    1.62906056938773    0.30713269838353
H           0.98645575359457    1.61160402775633    1.81102342488183
