    26
        -50.45276033  Gyration_radius:  2.54812577923 Dipole_moment: 4.932
 S           2.63578526760116    0.53124789284560    0.27657362921961
O           2.26290788740378    1.06003259145015    1.59230855411755
O           2.84938051194475   -0.89832572419001    0.31571520984225
O           1.69632565799703    0.95395458389716   -0.74860974241423
O           4.02048881436775    1.19733100244752   -0.09278054718783
H           4.62966669460676    0.76538477157361    0.49822558315193
O          -0.12888959684764    0.44528601142789    1.74485181030086
H           0.87257284818469    0.74106262397195    1.84609545020827
O          -2.32882842476267    0.41367217145163   -1.47860475282738
H          -3.16825542618321    0.59405149277893   -1.90212676115633
O           0.10511339776508   -0.82111720487266   -2.03044334453933
H           0.78579594347339   -0.16032617935416   -1.80904158227396
H          -0.73685007947949   -0.34510398373124   -2.08654924218365
O          -0.64828912774955    2.03163585767431   -0.12140147339858
H          -1.28249836140239    1.58636342105329   -0.71798455930558
H          -0.47917250025524    1.14807792107745    1.04064353739550
H           0.24619007147168    1.86246501708122   -0.48685953166602
O           0.34187689142143   -1.64863931853291    0.44124462630240
H           0.16332842014980   -1.48139713088499   -0.52549525545125
H           1.32370531915239   -1.59837168820616    0.48459999144344
H          -0.02750177326177   -0.47366863106865    1.22836783487367
N          -2.66062223720895   -1.24892055747579    0.59911955059830
H          -1.81943936736068   -1.81689590615795    0.60967636694130
H          -3.45449165908487   -1.87639276298330    0.57210314199765
H          -2.69345080965421   -0.74299128881186    1.47617689518986
H          -2.50484836229725   -0.21841496244957   -0.72580538918721
