    26
        -50.46126421  Gyration_radius:  2.44979066548 Dipole_moment: 8.825
 S          -2.10248788425991   -0.06321625841538    0.45137730208948
O          -1.19403547131337   -0.97305764649108    1.17066681682602
O          -1.31666712675689    0.91120556745771   -0.30289865347086
O          -3.06380007480964   -0.76624957215363   -0.34836617121245
O          -2.88732364282009    0.73354637874488    1.56087312480568
H          -2.21465470703581    1.19289316695503    2.07313169141924
O           1.13011746020352   -1.54454278522506   -1.67071286723874
H           1.51705071525943   -2.13452264147352   -2.31929596112476
O           2.09622037532209    1.94626227148739    0.27578210835230
H           2.97965423422841    2.23492432182564    0.04486177810086
O          -0.29233115025500    1.81481485193713    1.92619135799116
H          -0.60556284239659    1.60130743295110    1.02487400539707
H           0.46001605000157    2.39933059185479    1.79914263674587
O          -1.25444024613770   -2.50869344853670   -1.15829974616943
H          -1.99882494766997   -1.87484094768090   -1.07685107299008
H           0.19277376801942   -1.85928111442532   -1.54221630856764
H          -1.17172630684243   -2.85892122809701   -0.26627247605351
O           0.78928324463219    1.24951803059751   -1.88248622476562
H           0.98224967805954    0.31207676256033   -2.03073255186447
H          -0.09481731147296    1.24682483700719   -1.46850755381612
H           1.60730857859545    1.82741648343701   -0.58622547868075
N           1.31518701144005   -0.57827438944993    0.87688014275378
H           1.45900155946588   -1.01046902931544   -0.05423025500613
H           1.59180475907813    0.42893124113701    0.82844014870484
H           0.24402411775152   -0.66338242361501    1.07295176655450
H           1.83198015971313   -1.06360046307317    1.60192245122014
