    26
        -50.45634916  Gyration_radius:  2.66551743819 Dipole_moment: 5.747
 S          -1.72431002097200   -1.97288245500975   -0.68969313397223
O          -1.13355931440201   -1.88268736854988    0.62558802356498
O          -2.81227273886317   -1.04828406159709   -0.92643445127634
O          -0.70098899354232   -1.90321385554393   -1.74035569337573
O          -2.36403379336903   -3.42814217403393   -0.80677305230375
H          -3.03430441429306   -3.29600899731680   -1.47029128103897
O           0.13232046941052    1.20213216407086    2.31073446306147
H          -0.35027791350578    1.60352682704834    3.03375427991333
O           0.64553043041122    1.76712559564029   -1.38345466791534
H           0.34685183001587    2.12469081552360   -2.22054561047499
O           1.21723161408790   -1.20596311739293    1.58532404370384
H           0.36247529273447   -1.64770207089857    1.39007141034627
H           0.94824922794838   -0.37265761804543    2.00745996147989
O           1.56306399428876    2.99984702506395    0.88320320820545
H           2.51329021938459    2.87606077712895    0.89822720433392
H           1.25286493861560    2.70241035473056    0.00738406958702
H           0.62282312599904    1.92334353653562    1.86203659399787
O          -1.42702957848392    1.01577836352186   -0.06291468564847
H          -1.99741696445762    0.28393897174783   -0.38326780686277
H          -1.12205310188299    0.77020518921419    0.82260796955162
H          -0.19574969161818    1.49639937414735   -0.89427919200633
N           1.48653430864082   -0.79487896981321   -0.97937188687969
H           0.59912530825966   -1.30966841398164   -1.32251375649034
H           2.31273145671168   -1.17721587744384   -1.42423164073655
H           1.35217167163938    0.20747237694126   -1.20815921114553
H           1.50673262724406   -0.93362639168878    0.08589484237586
