    26
        -50.46214873  Gyration_radius:  2.45507122605 Dipole_moment: 8.525
 S          -1.73818338617371    0.97358605908040    0.77561517022234
O          -0.85278939945501    0.47900241022616    1.83741634412613
O          -1.03858124387521    0.93984961190232   -0.51411531453327
O          -2.99359641030837    0.27495832919804    0.72827463737084
O          -2.02989958219503    2.47588829219732    1.11259002145334
H          -1.15810038581864    2.89205940232080    1.11675253966386
O           0.02687380224388   -2.51962561274980   -0.68452232529696
H          -0.09842180043019   -3.46947179917491   -0.70362875634384
O           2.69529373431450    0.69662568913935   -0.14077327036815
H           3.58355950247727    0.76836594500952   -0.49123671347409
O           0.63121731073689    2.75932795380906    0.42921120589779
H           0.10684179493805    2.14874942617463   -0.11809167988957
H           1.49145635693266    2.33590009298374    0.52098950470850
O          -2.33834784599437   -1.50447234587365   -1.08373077062446
H          -2.25594654137441   -0.90014430880453   -1.82628955986062
H          -0.88754399539929   -2.12732693533304   -0.80417584185339
H          -2.67368499381798   -0.93615057385837   -0.35149459365154
O           0.95326036791716   -0.13125103184149   -1.91570363400978
H           2.10190865885119    0.48264572388193   -0.91220935618234
H           0.78989534554145   -1.07129291359365   -1.76768207056448
H           0.17379623052851    0.31909053530247   -1.53307351337307
N           1.12874727608377   -0.99827474274786    1.27271450424687
H           0.77397579179408   -1.67274808588185    0.56131070187331
H           1.86480136250044   -0.39378550001159    0.85582513484564
H           0.27980930247950   -0.34907168180059    1.53238512326270
H           1.46365873750227   -1.47243394955568    2.10364250235328
