    26
        -50.45634874  Gyration_radius:  2.66565719017 Dipole_moment: 5.749
 S           2.51430226737401    0.08168917763067   -1.00965582094304
O           1.50166467826568   -0.80990516975820   -1.52610482933943
O           2.38205124375031    1.45738261771226   -1.43899549746470
O           2.63314899732760   -0.03338341603650    0.44936365873838
O           3.90931359893957   -0.41914521597694   -1.59629743698740
H           4.43360334537358    0.37519765647967   -1.56375314732230
O          -0.81049137596887    1.36676346009203    1.71529450678390
H          -0.50545110527364    2.15570434500278    2.16506036740497
O          -2.20253802353572   -0.31698223612081   -1.36228166525372
H          -2.70796152630846   -0.07895781093421   -2.13985895022597
O          -0.44966731120721   -2.23336867830031   -0.49213350914017
H           0.32034872763928   -1.91097129232957   -1.00895654405775
H          -1.19042192756633   -1.71048959072483   -0.84266776602322
O          -3.31561077800762    0.59000124114568    0.92933349547496
H          -2.68485135911723    0.04463812523420   -0.58846062953239
H          -3.59777322194399   -0.08819560026466    1.54486951774141
H          -2.49761230582439    0.97852389661185    1.29238834799550
O          -0.15851636724486    1.56827851607003   -0.76257953093680
H          -0.58276992258778    0.83144562475330   -1.22582288709620
H          -0.54562294957695    1.49193355977879    0.74884876890700
H           0.78106036200836    1.58351821467749   -1.04619666852121
N           0.54136492632616   -0.99766638281466    1.58370198678916
H           0.05430668133115   -1.57116547715189    0.81649402947314
H           1.45692875997507   -0.63338656133572    1.13705387658701
H          -0.02397652356170   -0.16133138248348    1.81987390436043
H           0.74517112933866   -1.56012766098849    2.40148240256584
