    26
        -50.45634893  Gyration_radius:  2.6654615042 Dipole_moment: 5.748
 S           0.36172265192655    2.59409350298744   -0.69267572600507
O          -0.12376094425400    2.38699962546683   -2.04009732326050
O          -0.55622568717013    2.18891543012898    0.34674075985124
O           1.69213118518722    2.00780458028828   -0.48772831518342
O           0.55709480974078    4.16917528250417   -0.54404977051285
H           0.81492786931098    4.42055601932754   -1.42562468986954
O           1.04033769029750   -1.82373742383481   -1.02336083685155
H           1.55535026958590   -1.95863895389941   -1.81981767793041
O          -2.25586845871097   -1.12205746137349    0.67130983231562
H          -3.18983357850354   -1.21805018267273    0.48353353732591
O          -0.56744706773828    0.36240907385853    2.23598363234200
H          -0.64873631097100    1.19080357993001    1.71540425505003
H          -1.25586123969143   -0.20968856172771    1.85684745627527
O          -0.85476595754390   -3.38505535717947    0.18894169591323
H          -1.83704042142527   -1.98750367894614    0.47734510433482
H          -0.14824687315437   -2.95697790410815   -0.33008913043341
H          -0.43569195520549   -3.78238957820552    0.95375297412858
O          -0.79977114159057   -0.10976599098235   -1.55440265206940
H          -1.38180104478332   -0.07435224505021   -0.78144312338565
H          -0.58120520217153    0.81712174237782   -1.79191112865230
H           0.32595998659703   -1.15685909028854   -1.27796575728884
N           1.67932244107320   -0.09458512465474    0.98596833562500
H           1.57316724719082   -0.87313435091589    0.30948624440320
H           1.73049351583350    0.81446305386469    0.40166544297225
H           0.79411768834607   -0.00145344545413    1.58769851456623
H           2.51163053782936   -0.19809254142798    1.55448834635376
