    26
        -50.46214877  Gyration_radius:  2.45503090463 Dipole_moment: 8.525
 S           1.30018121324881   -0.18721224348181    1.68678077357236
O           0.58694531832160   -1.43529115766465    1.38724791225444
O           1.16202450902194    0.74868858137821    0.56465556288749
O           0.89306529837227    0.40006941019333    2.93411197404432
O           2.81678353907795   -0.56531643150074    1.79906108276939
H           3.03304401987190   -0.93921944000751    0.93494471952342
O           0.09790400166337   -0.94489256610156   -2.62046093129379
H          -0.01302366594286   -0.95736380855317   -3.57155364938495
O          -2.43942386441105    0.91379293153968    0.18508960117945
H          -3.33782936343309    1.08785707069745    0.46950554371867
O           2.53907268343544   -0.94891862190913   -0.92214275607750
H           2.07763756786068   -0.17965142838389   -0.54447374307723
H           1.93521397236440   -1.30152986215673   -1.58454432808940
O          -0.26704320881220    1.43021632814491   -1.57358574883341
H           0.04600855896816    0.01012565944067   -2.34081558641789
H          -1.15366288780723    1.46325677571140   -1.19266350433855
H           0.32823683899231    1.31242345586029   -0.80638780079019
O          -0.91884069890267    2.03711032034035    1.97669273771987
H          -1.85313625428839    1.31607655134601    0.89135523327083
H          -0.31848645614919    1.41928173526533    2.45559369039788
H          -0.31996964766156    2.61967898863048    1.50197553311435
N          -1.26552805735689   -1.47414286115253   -0.34325075454832
H          -1.83039139809315   -2.30905570489300   -0.23702607674387
H          -0.45667990227897   -1.47571537155152    0.40202197753950
H          -0.82125981431137   -1.43122854743755   -1.28225801932022
H          -1.82084230174345   -0.60903977375412   -0.16987345307625
