    26
        -50.45476244  Gyration_radius:  2.60398562821 Dipole_moment: 5.790
 S           0.38220060865392   -2.14668343103928    1.46931144980521
O           0.17336626347541   -1.14674222974607    2.52832866167402
O          -0.87225396982791   -2.61019252617367    0.91389329993188
O           1.32978157393779   -1.65881527359440    0.49625654728093
O           1.03774714718051   -3.40781646265375    2.17910062556031
H           0.27693019479740   -3.84121170233421    2.55320569587748
O          -1.94291337357167    1.24641952848840    0.17056798531030
H          -2.75443069129423    1.19143057492336    0.67592223590208
O           1.71581238059732    1.86744942173180   -0.95959241654125
H           2.41412666797258    2.36514250196777   -1.38476776371178
O           0.92981377576705   -0.69595253186699   -1.93493359576743
H           1.17323731949810   -1.23964170188659   -1.16013839604898
H           1.36306582968345    0.15019869857116   -1.75886436587279
O          -1.58457263767217   -0.96384796862231   -1.02544835321571
H          -0.73076276988100   -0.90281267329385   -1.50717862953253
H          -1.42798112531798   -1.65022960391078   -0.33970318245775
H          -1.85197806773746    0.34439523856057   -0.30550239185528
O          -0.65751447580870    2.14680853339685   -2.10823506843919
H          -1.27120744566249    2.02597042383689   -1.36623538940567
H          -0.71128976424635    1.33716571304512   -2.62536503261611
H           0.86920785657161    2.11403935881618   -1.40711506648999
N           0.44277672710808    1.11170642473632    1.38151707726883
H           1.13515684469558    1.11744376335548    0.61894384791362
H           0.41124186383032    0.14107773004750    1.88451612913613
H           0.66149090522329    1.84362964799233    2.04985921783858
H          -0.51105160799125    1.26106855565707    0.96165688845504
