    26
        -50.45476228  Gyration_radius:  2.60429918269 Dipole_moment: 5.801
 S           1.39187897889688    1.18299833656925    1.89235816697208
O           1.09638425861969    2.33849954547091    1.03060483985011
O           0.27560993316525    0.85855701612028    2.75600496332658
O           1.88556016174300    0.07990638109430    1.10373990202383
O           2.56919386217085    1.64282838040028    2.85478331465017
H           2.09787823485080    2.12888776686500    3.52423394788224
O           0.73744309835524   -1.13025792159675   -2.35292514586149
H           1.11782364495801   -1.64456320206641   -3.06493452246512
O          -2.16374548604961    0.65732528976888   -0.49793642397386
H          -2.78173100380410    1.30840487312405   -0.16459073520210
O           0.66421550765252   -2.13102788156824    0.31854597925459
H           0.81749552987559   -1.97812292012542   -0.62367803727136
H           1.23859763873486   -1.46891328180006    0.75091584883464
O          -1.35226032441208   -0.75821872812373    1.44688757381356
H          -1.88038364258708    0.10337888258798    0.31524963125029
H          -0.69518844965204   -1.39571194409400    1.09135296875814
H          -0.82875842018596   -0.17564170061134    2.04060716519368
O          -1.77848499918584   -1.75483253663441   -1.79839376052086
H          -2.14112061887850   -0.91716048009233   -1.46879934202490
H          -1.66387192213877   -2.31245110912870   -1.02258867887070
H          -0.21817319980161   -1.37790426455633   -2.29367338354105
N           0.33074754672721    1.34926634703581   -1.18822880374033
H           0.42940100448167    2.01833605777760   -1.94511951385260
H           0.79725821433919    0.46620923076121   -1.44051316106812
H           0.73874050156882    1.76662749177137   -0.26320927048786
H          -0.68451007943535    1.14358037103235   -1.00069349293156
