    26
        -50.45935139  Gyration_radius:  2.45172846933 Dipole_moment: 8.715
 S           0.00718735803475    1.57455739049805   -1.23692423455074
O           0.81623758670316    0.53957163900985   -1.93100860320527
O          -0.65352797692004    0.94992615082873   -0.10529520555158
O           0.78487597696682    2.72862403165054   -0.87310858599341
O          -1.09488762594916    2.03739446805099   -2.24792007926648
H          -1.57082357678039    1.21338349636888   -2.45877411435464
O          -1.50163432902736   -2.22964686900479   -0.14638205641238
H          -2.08720815322237   -2.97636438166507   -0.01773100687228
O           1.27318328912045   -0.28087972463565    2.22222551543497
H           1.95724458369737   -0.37018688658057    2.88795805022918
O          -1.55589250292636   -0.59510543739130   -2.52443760262731
H          -1.72092054985000   -1.08559767585771   -1.70605727988224
H          -0.60504906985002   -0.40272690625122   -2.53092717414954
O          -1.57372345171842   -0.53820804156240    1.83863956583847
H          -1.43162056363964    0.19011442873071    1.20284410213854
H          -1.64524886171750   -1.61013973014765    0.62642038832150
H          -0.73398287467213   -0.58400188609346    2.31210044394458
O           1.48175032470263    2.27447126891700    1.61321572569686
H           2.27528828514003    2.81061742033801    1.66711543344891
H           1.10719342184172    2.45735983522880    0.72013906243373
H           1.24182150301640    0.68312092453315    1.99389204362337
N           1.06510493538906   -1.38122003737959   -0.25632255124924
H           1.81620280984955   -2.01770833072933   -0.50081451235445
H           1.19520594008345   -0.97720264936397    0.69737960883908
H           1.01342692955418   -0.55340181349773   -0.96590376918801
H           0.13979658217604   -1.85675070399531   -0.28032317429207
