    26
        -50.45935128  Gyration_radius:  2.45179102998 Dipole_moment: 8.712
 S          -0.83597095941473   -1.53641358671775   -0.97473260221011
O          -0.89579128487186   -0.10734243712911   -0.72703780227085
O           0.51551478516142   -2.01814907868990   -0.58888697748513
O          -1.88846229312795   -2.26935290749495   -0.32347402831994
O          -0.97309610734558   -1.76825374783079   -2.51700397161843
H          -0.23180208320907   -1.25770381955446   -2.89078441603193
O           1.78403708312725    1.79011284743225   -0.92656054500877
H           2.28906184974804    2.55764775896446   -1.19648649082076
O          -0.53220097651096    0.85752608569406    2.37127557517856
H          -0.63889987213662    0.93948911692746    3.32049264329996
O           1.39283628241091   -0.50064310600678   -2.63784722715057
H           1.38113934575578   -1.15506265289032   -1.92183771676114
H           1.43362261811553    0.36455148712851   -2.20492114174852
O          -0.59934072702491    2.40449874359476   -0.06132941657745
H          -0.93584003752947    1.56958139893615   -0.44148437459128
H          -0.63205909982764    2.24225783692469    0.88953228715743
H           0.87174295691229    2.11539594744261   -0.67468589971521
O          -2.47910047929392   -0.81573560089626    1.77683425788962
H          -2.84750304281755   -1.48981123323811    2.35126796167579
H          -1.28533080218375    0.29229104473624    2.06189795780404
H          -2.30445575876540   -1.27318373743396    0.92143431384156
N           1.50444100179018   -0.18568746700852    0.90059032310907
H           1.78283142155801    0.55995019152557    0.23016024265475
H           1.08168802650284   -1.00039529881998    0.30944910131249
H           2.29651415996052   -0.51015492260988    1.44502607434054
H           0.74642399301486    0.19458712701615    1.50911189204695
