    26
        -50.45935132  Gyration_radius:  2.4517244932 Dipole_moment: 8.715
 S          -0.16270413928278   -1.76704201155801    0.92753438790664
O          -0.88924600555947   -0.67681628682357    0.30240207190451
O           1.25135808287935   -1.70116273172652    0.47637817042253
O          -0.28321153646192   -1.78045283545076    2.36085636378100
O          -0.74631955139928   -3.11426788536218    0.38407622316098
H          -0.62371109130900   -3.04289074169719   -0.58020414947147
O          -0.02231403861830    0.50440322227206   -2.64452473647692
H          -0.17425485122913    0.80514827593925   -3.54089541090384
O           0.07064626383749    2.34886028560886    1.05661296218195
H           0.32167534354486    3.12964624509601    1.55301400061225
O           0.26383499998277   -2.28509791982808   -1.96330957093355
H           0.89476762415792   -2.14368630683855   -1.24006203511398
H          -0.00692823465499   -1.40221414765813   -2.25463605374691
O          -0.68737717327025    0.73142714245563    2.99412918829299
H          -0.36398711554505    0.73234944118372    3.89714571181029
H          -0.29940672839355    1.71318592301346    1.72093114655049
H          -0.64526518529709   -0.21020838041592    2.70614281085638
O          -1.78072866913659    1.43487186140536   -0.95682805525753
H          -0.77568907645745    0.85608981250735   -2.08746386395767
H          -1.72233037399068    0.59688853102943   -0.45755948043883
H          -1.34297370099783    2.06846093536653   -0.37510119024576
N           1.56826262239943    0.66014602671992   -0.46122989036747
H           2.54545030284313    0.91978461351340   -0.54342693986011
H           1.46796205044216   -0.33355464421137   -0.02058704816942
H           1.03875676542695    1.33076995780470    0.13836528395467
H           1.10373342608811    0.62536164765658   -1.39175989648818
