    26
        -50.45935132  Gyration_radius:  2.45172049113 Dipole_moment: 8.714
 S          -1.59106760810024   -1.05212389484194    0.60883453053969
O          -1.99317648897756   -0.47415378707845   -0.69948800511092
O          -0.16506733915011   -0.84034856607529    0.77890500776744
O          -2.37457445457161   -0.54000062158104    1.70105842442987
O          -1.84553180652875   -2.59413274355828    0.51706410835012
H          -1.29928035750057   -2.87021060614415   -0.24145873373093
O           1.87520553681378   -0.70215206560700   -1.79975307296087
H           2.66615642124115   -0.91381123826292   -2.29635258561283
O           0.85367051521347    2.25652426481178    0.90428826343454
H           0.93898635254914    3.18014432902485    1.14657693789542
O          -0.45182346338856   -2.40843934888934   -1.77230495139369
H          -1.09821465361756   -1.68910801752131   -1.69548148740971
H           0.41891128216873   -1.98980618371490   -1.70725751686193
O           2.36729607322666   -0.19063458163863    0.71069086970776
H           1.51033882605326   -0.59722130853414    0.94565183639786
H           2.15264934612587   -0.58636736433808   -0.84518943493298
H           2.21532731693706    0.74933879542252    0.86824649267810
O          -0.93228674846707    1.42980355025167    2.65688131211395
H          -1.38876393160600    0.61576348192490    2.34009295498696
H           0.24448174975567    1.85579097639926    1.57558677216948
H          -1.61960617248079    1.96046010380706    3.06433301228220
N          -0.09265135030483    1.10466727560830   -1.37081451586072
H          -0.36712134201055    1.76077019146676   -2.09418028708375
H           0.65957522633715    0.46602335850453   -1.70121357787092
H           0.25238783171710    1.59359318143414   -0.51551795856402
H          -0.93582075143377    0.47563082912984   -1.07919839535939
