    26
        -50.45935131  Gyration_radius:  2.45173108713 Dipole_moment: 8.715
 S           1.84337776627986   -0.44915693283197    0.63997934484531
O           0.87931149081642    0.61624808542492    0.43326621015500
O           1.11209253143640   -1.74247720603220    0.64291896305096
O           2.92289188957889   -0.42929213598086   -0.31047243557090
O           2.45879960550646   -0.27673025758920    2.06913978688436
H           1.68209053309162   -0.31032188921002    2.65698591599223
O          -2.23536391667253    0.34380485346355    1.46049665606577
H          -3.03907993761452    0.63735533036279    1.89047600889850
O          -0.75163260475295    0.59102301008859   -2.39259075903002
H          -0.95448526369823    0.56268104152845   -3.32912683784767
O          -0.03265102335932   -0.83168419158229    2.90746606838065
H           0.24044839645931   -1.43240962640400    2.19633181127667
H          -0.73862451845131   -0.28380987934658    2.53450771561456
O           1.88134436165180    0.68872570227541   -2.44096388206425
H           0.23117451318703    0.70399381084278   -2.33182904592675
H           2.26308851502495    0.37668080580491   -1.58756029927992
H           2.45294904380991    0.32445229487303   -3.11963810232127
O          -1.15513052026298    2.19329760963692   -0.02899603033188
H          -1.86300404520777    1.13219120796749    0.96919770289370
H          -0.27254342002305    1.84790154308942    0.20897127267754
H          -1.24961782312606    1.93645099422657   -0.95451173685828
N          -1.15762575847073   -1.25561091872443   -0.43718924988116
H          -1.69173372383331   -0.76668245687329    0.31018533355699
H          -1.01543088254638   -0.58403996326604   -1.22356205539673
H          -0.17748087784017   -1.49478296152637   -0.02029871220785
H          -1.63316432099048   -2.09780787021720   -0.74318363358069
