    26
        -50.46513956  Gyration_radius:  2.48550198676 Dipole_moment: 1.888
 S          -0.58279844814196    1.00063136431463   -1.61362641282071
O          -0.08725397190847    1.69061208819110   -0.43924645261691
O           0.48108314099207    0.77151079523677   -2.58269853359377
O          -1.32165244573117   -0.20519960484210   -1.28574645525431
O          -1.62965572578647    1.95863857017308   -2.31898128589662
H          -1.07629356064215    2.66697911292560   -2.63044707337593
O           2.45788454757190    1.51117233343015    0.62165199488645
H           1.75259560871205    1.99092273235880    0.15939239147262
O          -1.00669715150899   -1.65544844152370    2.20177819677007
H          -1.33375039606423   -1.97319971825577    3.04398887036868
O           0.25856348351543   -2.09291359241472   -0.22101290644292
H          -0.03587219580994   -2.09798343283815    0.70336293671182
H          -0.39894946137182   -1.54313951735427   -0.69196073734044
O          -2.88730352385644   -0.37684166613565    0.81845778897043
H          -1.75993134671418   -1.19721666376684    1.75689367970465
H          -2.32909796240655   -0.19932077587232    0.02791135214636
H          -3.66915117199343   -0.82233548334169    0.48764844044715
O           0.41844540141033    0.73893469981664    2.14392348507310
H           2.00005587210406    1.20662421360580    1.43229071116542
H          -0.01619801509227    1.13356144337879    1.37224716100760
H           0.00854980663807   -0.13193929851578    2.25920460398067
N           2.18058625526474   -0.49088032716823   -1.05078349872575
H           2.43208018015867    0.25363230241249   -0.32555038704593
H           3.00609630199859   -0.90966201457770   -1.46536637212533
H           1.54914752947646   -1.22566123024871   -0.62167608714337
H           1.58951721917648   -0.00147787899400   -1.78165541033037
