    26
        -50.46282814  Gyration_radius:  2.50950507287 Dipole_moment: 5.063
 S          -0.44127447546537   -1.61362961065045    1.30336360482272
O          -0.42527275305988   -1.41307524472925   -0.13573297346413
O           0.86912216237677   -1.61339935115517    1.91065311976195
O          -1.35316722110628   -0.67021679394029    1.94986134443075
O          -1.04012644056871   -3.05977943600058    1.54499093332044
H          -0.66559217692201   -3.25913214112099    2.39606854684870
O          -2.55857407039033    1.60618685791153   -1.25345191458797
H          -3.21555435987128    0.90797466601340   -1.26832523007127
O           1.32325884850124    1.82386974860098   -0.18587413847205
H           1.95865306135334    2.53960371695172   -0.15047443228813
O           1.74346514673747   -1.87138449031701   -1.66250019806341
H           1.47197392823960   -1.40117227910134   -2.45504140228320
H           0.94615833289574   -1.91835279691512   -1.10153927079138
O           2.60041366378278   -0.31123047475065    0.38698822326324
H           2.06574725128137   -0.78788342205215    1.05641223913776
H           2.55093975345084   -0.88429210130376   -0.40413269438216
H           1.84366196961095    0.98269444950653    0.05456479621726
O          -0.30744187339965    0.49733878039752   -2.03024991347287
H           0.36796851997646    1.05788030406154   -1.61972396758989
H          -0.40481203490028   -0.25880876952969   -1.42058060761721
H          -1.76957522096437    1.24660820579358   -1.73910005520174
N          -1.11141688022088    1.70101095327224    0.97702226633722
H          -0.13783514146709    1.80821487069140    0.60914680216724
H          -1.21162757895995    0.72173011008145    1.41400450914050
H          -1.32074609028684    2.41504672006557    1.66617881788884
H          -1.77834633060630    1.75419753823841    0.15747158491560
