    26
        -50.46282831  Gyration_radius:  2.50937814332 Dipole_moment: 5.063
 S           1.36620764117252    0.21621233979586    1.60779562761260
O           1.37838269427959   -0.43685840768566    0.30980541632893
O           1.37773895730726    1.65876957297691    1.53923896281469
O           0.27234349696036   -0.29191746754740    2.43525387456098
O           2.71217537189339   -0.20275216695548    2.32983635517409
H           2.81372295520895    0.52315604234484    2.93582122596748
O          -1.59082537756121   -2.85096953679916   -0.19394346448093
H          -0.94915056188851   -3.44008754384685    0.20665975301676
O          -1.67267908878758    1.08456286982166   -1.06652333395347
H          -2.33647431999579    1.66369917338099   -1.44230890625121
O           2.22035329936707    0.77691749932671   -1.94023617683488
H           1.85154513106534    0.16887891792607   -2.58614426208046
H           2.12363022679181    0.33096978823548   -1.07747334396802
O          -0.21578355389511   -1.21173436604976   -1.71787356379264
H           0.43225301213524   -1.01485248532051   -1.01487480780338
H          -1.10639483847669   -2.37509523506185   -0.91957143420491
H          -0.77890480166229   -0.42427740492962   -1.75964587096988
O           0.44554686934874    2.48436930565888   -0.79822426052580
H           1.12295034149725    2.07479563560504   -1.37269969124663
H          -0.83895660473938    1.65801296755253   -0.95597660827667
H           0.77747343719958    2.32180289591951    0.10982657510168
N          -1.90333665425548   -0.53672871410327    1.08119726910010
H          -1.00983292889993   -0.42058118998790    1.67135891444691
H          -1.88449432438398   -1.50708520395884    0.66023353351542
H          -2.72511698526818   -0.40549870068101    1.66093236201379
H          -1.88237338441419    0.15629141438112    0.29753587473359
