    26
        -50.46282833  Gyration_radius:  2.50908809637 Dipole_moment: 5.061
 S          -0.84301565741528   -0.26778684577523   -1.92724054082080
O          -0.16901665832006    0.80979813722527   -1.22284400873309
O           0.01714915554317   -1.37826662645006   -2.26272010297025
O          -2.04118899202112   -0.69205698246813   -1.20344023555017
O          -1.33676562972104    0.34039555816876   -3.30377405272027
H          -1.39197746962648   -0.45036892395079   -3.82908153935255
O          -1.80109423085469    1.66290669216369    2.16361413962435
H          -2.29613598679775    2.23674993443390    1.57629168848303
O           1.06145238027391   -1.13143975300546    1.64609196747520
H           1.52635672774526   -1.72009480773327    2.24158138385980
O           2.49721315222870    1.16978009192061   -1.29882947103813
H           2.58874399922311    1.76861994625376   -0.55318031831009
H           1.53828776162903    1.11393159142795   -1.47188303461412
O           0.64901149068726    1.60128985235755    1.21799068612085
H           0.34849684960953    1.42479511018865    0.30616498041258
H          -0.84380871807489    1.80269670344108    1.93632301832223
H           0.98717145129054    0.74994318779100    1.53375228577216
O           2.12171969320460   -1.44056572327076   -0.65594966515295
H           1.48724800743845   -1.27294633356915    0.73248879580021
H           1.38497496251617   -1.55569925240371   -1.29240660337292
H           2.51053192819896   -0.57714966850872   -0.90103274762126
N          -1.60652097985935   -0.85620499522411    1.32860427058565
H          -2.18896299143699   -1.56166782706178    1.76650148247285
H          -1.80480310920267    0.10315045118276    1.72773776900132
H          -0.59146507004053   -1.06418444912045    1.47471721525270
H          -1.80360207621972   -0.81562508800334    0.27052265706231
