    26
        -50.46282830  Gyration_radius:  2.50938478029 Dipole_moment: 5.063
 S          -1.01958748341525    0.56614652635903    1.77160878189806
O           0.13898584611113   -0.24973976429935    1.44976667628549
O          -0.81857830317315    1.98062669183340    1.55995883396639
O          -2.21309950661846    0.06626045903212    1.08970087712246
O          -1.27542599267660    0.38359691756085    3.32388695544602
H          -1.74079370040016    1.19039593894875    3.51583717664641
O          -0.62110534994816   -2.99789501348787   -1.15009062318991
H          -0.83102091388419   -3.45978424277827   -0.33652805428478
O           0.52738503009919    0.75830678307332   -2.06408642167139
H           0.70499618556520    1.21286452384298   -2.88814143673626
O           2.64271273504590    0.73165941188038    1.33322354978160
H           3.06592830148161    0.00867580104351    0.86299479286245
H           1.76156131426940    0.39722213779238    1.58674852589115
O           1.12566609950329    2.38783724114411   -0.19177324207168
H           0.76018007777037    1.42237672055510   -1.32868599088656
H           0.37451359352483    2.38239871017408    0.43824740673728
H           1.85663023007684    1.97605026628055    0.31099234746157
O           1.42339737355494   -1.44535172464065   -0.59339643051855
H           1.34314219867196   -0.73171690208495   -1.24388577898962
H           1.00416465331383   -1.09169909367775    0.21410387944589
H           0.26655543694521   -2.57637928070655   -1.00144667595913
N          -1.70881240833908   -0.57782990420768   -1.35119358608158
H          -1.39730172232094   -1.58863340108351   -1.33448602286914
H          -1.94634990701536   -0.29358994970597   -0.33983062635644
H          -0.90483960669871    0.00300633699378   -1.68462450577759
H          -2.51890417144971   -0.45480517983733   -1.94890041815511
