    26
        -50.46261901  Gyration_radius:  2.6075038735 Dipole_moment: 5.794
 S          -1.07139113938663    1.78587269197897    0.48272300431977
O          -1.13259316066236    1.12134984624489   -0.81114673396388
O          -0.38590704729023    0.90233747005492    1.45360729977782
O          -0.48410946558926    3.09414567435052    0.41544870271978
O          -2.54584205823563    1.94007692212890    1.01580535663677
H          -2.84566505276758    1.04327544396209    1.22804150828079
O           0.71539191436366   -2.10090082583052   -1.27071464790994
H           0.72510657032135   -2.22618748414157   -2.22092101625466
O          -2.39034840232216   -0.67720930134637    1.86001201696281
H          -2.55956656916234   -0.86261866787954    2.78537487632102
O           1.22006977468557    2.48403177952701   -1.51200737233617
H           0.54684502033550    2.21021804851981   -2.14271983798522
H           0.70199906774036    2.91556660064872   -0.79726730506086
O           3.08501946400147   -2.03727643078934    0.35247994767562
H          -1.52829514988009   -0.19670058473106    1.82071552587398
H           3.47301106003742   -2.80537038118344    0.77237857884856
H           2.32164484053279   -2.34847974088672   -0.15344180424579
O          -1.74426108744546   -1.43886715853690   -0.76332227899359
H          -1.59685704294800   -0.47354743949510   -0.89041041615033
H          -0.24669277946359   -1.96686915803135   -1.03269236196649
H          -2.10311040185840   -1.51437632933317    0.12962881400365
N           1.59268981131931    0.23278146684609   -0.14491971662272
H           0.88912315984266    0.43894804752410    0.61231794817621
H           1.23662813515782   -0.58047323307781   -0.69433427539435
H           1.63341964009601    1.10181732120394   -0.74386721463411
H           2.49369090856427   -0.04154458772796    0.24923138193094
