    26
        -50.46282815  Gyration_radius:  2.50954852134 Dipole_moment: 5.063
 S          -0.40614731000678   -0.64295346712280    1.98029380519586
O          -0.27095185489686   -2.04531753302001    1.66280885224645
O           0.58678549370301    0.20521162200583    1.34293341606679
O          -1.75708173726832   -0.14321752276060    1.72536525468319
O          -0.16387476154492   -0.51783184853621    3.54059737815663
H          -0.53725610600062   -1.34063359294414    3.83707313558357
O          -0.97570692510712    3.02174749568581   -0.78546887642365
H          -0.92369039595543    3.45352981270438    0.06903007958436
O          -0.14112096139227   -0.67942490828223   -2.15199508664402
H          -0.22574854618171   -1.10160785150346   -3.00747339351985
O           2.93324242951198   -0.72492631215487    0.40844679263245
H           3.18086132916869    0.02088050859330   -0.14420004579863
H           2.17416987706208   -0.41582267450091    0.93842237685843
O           1.15265139646260    1.49138737455512   -0.95443523016211
H           0.87739761009869    0.79769517093816   -1.57244377723422
H          -0.08286869587129    2.61262211358633   -0.93771342907107
H           1.01162887612341    1.10401452186463   -0.06957548791478
O           1.02737052640163   -2.35875328268959   -0.62441618886672
H           1.87603112669708   -1.94985516299271   -0.36129245832840
H           0.51194348936770   -2.38821776638353    0.20901541065019
H           0.31585579811428   -1.36325135524867   -1.55237509159968
N          -2.05163250023953    0.58873969219272   -0.72488119922795
H          -3.00760722225089    0.46961337687699   -1.04201900051730
H          -1.75901786298787    1.60429957662980   -0.76934249499279
H          -1.95648843039095    0.26733861563005    0.29880603310193
H          -1.38874467261063    0.03473342687559   -1.31516078446181
