    26
        -50.46261903  Gyration_radius:  2.60763219962 Dipole_moment: 5.792
 S          -1.35583007458325    1.52550765589255    0.63453495689944
O          -0.72792520164696    1.48644277228998   -0.67835863750657
O          -1.12044088400138    0.23784784865817    1.32705258954569
O          -0.94906683872509    2.65725220875837    1.41861728602767
O          -2.91408662683632    1.61496987652736    0.42129677982032
H          -3.18217166310327    0.75611323272985    0.06107475110593
O          -2.90014632785875   -1.11062629169814    0.02628891370303
H          -3.46583533850626   -1.64870753448584    0.58282823573969
O           1.44998248722048   -1.43312047490543   -1.54469568872845
H           1.91996258308151   -1.14433467760394   -2.32855807978434
O           1.51635009219809    2.72546643645993    0.46533525254643
H           1.25304970249869    2.82726144766982   -0.45463754720651
H           0.67997992642459    2.87121200800830    0.96001806944507
O          -1.01262858659448   -0.75957236286285   -2.02195391340274
H           0.48134868639475   -1.29872484870700   -1.75415426550136
H          -1.74078541119755   -1.16293857496822   -1.53318826956188
H          -0.92654448582610    0.14329775665487   -1.63834329992620
O           2.75312336163091   -2.34523342451567    0.84775882252501
H          -2.17770369490704   -0.76670346086102    0.60541869746449
H           2.97929835685049   -3.25866263788372    1.02510701265763
H           2.35585309213353   -2.31964636362381   -0.03382283165620
N           1.43746243784893    0.08027867324152    0.73416970941600
H           2.06941344838117   -0.44046181442371    1.34401035061985
H           0.44232923849932    0.02758891591488    1.07743058641955
H           1.66283273860854    1.10969524228103    0.66185031595136
H           1.47217895201378   -0.37420161854511   -0.20507978662107
