    26
        -50.46261907  Gyration_radius:  2.6077895965 Dipole_moment: 5.792
 S           0.99464272838768    1.80605878994696   -0.56549392733364
O           1.55058123246491    0.75579850100773    0.31831623944834
O          -0.21543674135469    1.30669374835474   -1.20242924778682
O           0.79703205211130    3.05428817687086    0.11581802286896
O           2.07442718438126    2.03034389705368   -1.69033943237857
H           2.32040560188451    1.14605794910381   -2.00127660260615
O          -1.59791036825504   -1.99418344694589   -0.10107613467337
H          -2.48190349532868   -2.00787727275517   -0.47132434427016
O           2.59457838200051   -0.67170369050108   -1.56593021952641
H           3.49553158602195   -0.94954264113301   -1.39151575419896
O          -1.68437846754831    2.52347576877346    0.85830589531632
H          -2.01788870768646    2.38798888977216   -0.03408341051676
H          -0.79402577356825    2.91309867062814    0.71335492165154
O          -0.11926092069925   -1.17607734562051   -2.07344443988664
H           0.83482213839803   -1.32298619655017   -2.07114922742113
H          -0.99219539283659   -1.80243673847991   -0.87343945034157
H          -0.22309993652405   -0.21979167788763   -1.86273483534654
O          -1.04130364416728   -2.33334965504824    2.69719981068430
H          -1.22600615340999   -2.51362341310991    1.76499929617873
H          -0.86520205020398   -3.17697064281673    3.11451958297129
H           2.25519355013867   -0.27006604010054   -0.72980518282297
N          -0.74129545613208    0.10333685689726    1.43194034849448
H          -0.75472519587724   -0.29486570410642    2.37197788963408
H          -1.24311620328974    1.02932991336094    1.35167920245614
H           0.24448850366959    0.28170979549821    1.10430864537624
H          -1.16395445259080   -0.60470651223233    0.79162232402542
