    26
        -50.45634950  Gyration_radius:  2.66537613846 Dipole_moment: 5.738
 S           2.47068011210533   -1.09526455460745   -0.18655145236867
O           1.57857637284761   -1.91121001401026   -1.01970438434259
O           3.00047286222702    0.04188817574588   -0.90810461900790
O           1.85568253715993   -0.77035998881200    1.07963009302099
O           3.72603670229295   -2.02230084272612    0.13715595027317
H           4.27593834513540   -1.88361840268437   -0.62782211514010
O          -1.33562406289841    0.60857181617033   -1.81171919053552
H          -1.20410445266770    0.70589638266365   -2.75564174962994
O          -0.77355838980762    1.80304608463743    1.72017663701408
H          -0.56606995188615    2.62147128648032    2.17172198034192
O          -0.57272703686845   -0.90456512038279    2.07495735555689
H          -0.74293730378210    0.05123249185974    2.12565315430733
H           0.39628772213266   -0.95488489098212    1.92563038902617
O           0.78928765594718    1.44044430684933   -0.63181410542270
H           1.64488881033997    0.97462297800033   -0.75364272342797
H          -0.48722542524492    0.95665964355858   -1.38722302119379
H           0.60068964254917    1.44261004725210    0.31781007792309
O          -2.81948906415877    2.06514981459076   -0.03014612058624
H          -3.60132109116655    1.54674854789343    0.16582254563161
H          -1.52571780199597    1.99304019166048    1.12006806623658
H          -2.36928360734685    1.62707872389367   -0.77658538342831
N          -0.90175551787160   -1.68092356236002   -0.39621308084141
H           0.13550397505824   -1.84024963338712   -0.65810110321841
H          -1.23817300424213   -0.89757344429351   -0.98657464943470
H          -1.43936910064679   -2.52639914928239   -0.54739316025057
H          -0.89668892722441   -1.39111088776367    0.63861058945870
