    26
        -50.45872217  Gyration_radius:  2.53224081388 Dipole_moment: 5.651
 S          -0.25645147124148    1.68202016700099   -1.03872028336063
O          -0.45514772998560    1.89993458431559    0.39755512870784
O           0.23280143899533    0.34843366005725   -1.30002274484637
O          -1.38342516399502    2.06320981687944   -1.85288143939066
O           0.93435073643999    2.68207885726403   -1.40289748238651
H           0.99668386834007    2.61887090689518   -2.35086587279584
O          -0.48591127043192   -1.86456697004855    1.48040742191160
H          -0.95691463342289   -2.43051958757431    2.09328092588323
O           3.23828434944590   -0.61601698026585    0.55894418373947
H           3.87296161482278   -1.22865109424812    0.93273724042883
O          -2.94475652994812   -0.06459534872106   -2.02089993630409
H          -3.81982894136566    0.29604584762295   -2.17811543162464
H          -2.32644314524773    0.69362872644397   -2.09551122238320
O           1.37295951109255   -1.96937335992211   -0.67806002282364
H           0.73616242322321   -2.22144268183640    0.00451626931585
H           0.96085310324012   -1.19653135131472   -1.10751556576005
H           2.64049292539780   -1.15713633572132   -0.02922148268965
O          -2.21138134985367   -0.17728602570267    0.55580613636041
H          -1.71244491453678    0.65546253032306    0.53267595217509
H          -2.52631151240768   -0.31270464000204   -0.36412050282181
H          -1.18691750896948   -1.29028361354164    1.04504477427026
N           1.06872863890470    0.32358433823794    1.78369801918322
H           0.50400461945650   -0.55787009472454    1.80768053963859
H           1.99153056981275    0.09789868149952    1.32870020020997
H           0.51680303578888    1.02012107951131    1.18336724985518
H           1.19931733641843    0.70568886758286    2.71441791552868
