    26
        -50.45872221  Gyration_radius:  2.53259607819 Dipole_moment: 5.650
 S           1.51034099865077    0.03715987698500    1.30077212244160
O           1.26624052433167   -0.51662808929881   -0.01062006320214
O           0.43038726019749    0.94485396324438    1.70044177470172
O           1.85161680671389   -0.94595952376715    2.29842821965841
O           2.77234980693819    1.00530055788042    1.15730263527646
H           3.49626868067139    0.40698310766441    1.00062356093347
O          -2.24619498287416   -0.28368661696337   -0.88127056188378
H          -3.18823324086622   -0.45511773006656   -0.91114530466296
O           0.61565996101310    1.93865644511139   -2.65532364722432
H           0.29463550435873    2.23753766510617   -3.50704367009812
O           0.29611408182723   -3.03856669317227    1.85719955181184
H           0.22769581967536   -3.46698914416184    2.71294985225270
H           0.97961045584013   -2.34225449848431    1.96146206209903
O           0.13476300558459   -0.62076719427542   -2.41225673073993
H          -0.77710410587907   -0.68713846502861   -2.09758362094064
H           0.55667731106016    0.94246825180395   -2.66830117687303
H           0.66946443467853   -0.74486301132507   -1.60586633750953
O          -1.43222610086527   -1.02826137021165    1.45574606236683
H          -0.92273578732066   -1.86564278198796    1.51075428623830
H          -0.80137838076991   -0.33146304882727    1.69966677929656
H          -1.92367608805194   -0.68023490880690   -0.01552288414254
N          -0.76948711113478    1.92193786767230   -0.38133502286491
H          -1.45138914115336    1.16230265978287   -0.61486879197547
H          -0.14667398711663    2.05923752924662   -1.21959346846722
H          -1.24469569781061    2.78217159361946   -0.12934624425534
H          -0.19803003765044    1.56896359741361    0.45473061773220
