    26
        -50.45634940  Gyration_radius:  2.66564051229 Dipole_moment: 5.743
 S          -0.01151298094101    1.80339147244559    2.02163611305271
O           1.38823472421706    2.12535892721340    1.84372058597665
O          -0.84679724202221    2.35826511703401    0.94920189185448
O          -0.28399272744101    0.39954180040872    2.22681837486487
O          -0.46087321207706    2.55715416975889    3.35214365936673
H           0.06782783111837    3.34846873657207    3.31913307229921
O           0.52589642373577    0.47853156693930   -2.22097305732135
H           0.91259689056528    1.22008525889183   -2.68825172947423
O           0.86294555000375   -2.45910182247420    0.11776096141660
H           1.54975167372225   -3.05211676274936    0.42333241573488
O          -1.56760399437200   -1.47498455401555    0.90627426936670
H          -0.79340499511950   -2.00517817812286    0.65225392123047
H          -1.21317816071983   -0.87154013171684    1.59480458487813
O           0.81112785880371   -2.22149978814634   -2.57661006788884
H           0.78135934843430   -1.24638257831775   -2.58982666496866
H           0.91566440532504   -2.44457046447325   -0.86149730504111
H           0.01087865931459   -2.52957153969874   -3.00452131972894
O           1.73905498368773    0.24953410778740    0.03220191898493
H           1.67453144581688    0.95474107898189    0.71206521315872
H           1.41986825758691   -0.56780746580237    0.44141450031513
H           1.03662084831768    0.41603109806805   -1.35144488164147
N          -1.72680519591441    0.58672522853582   -0.68816871007292
H          -2.63872779942076    0.80496316361032   -1.07219833204009
H          -1.74096402818845   -0.32556836975462   -0.12064741994666
H          -0.99803813648797    0.54006431480276   -1.42433439071828
H          -1.41446039793232    1.35546560422559    0.00571237633641
