    26
        -50.45450920  Gyration_radius:  2.45161206162 Dipole_moment: 5.286
 S          -0.87916765080168    0.67314758985386    1.76950377066280
O          -1.40042856074518    1.89511413599660    2.26538743377215
O          -1.93857482847893    0.03581551507542    0.85465099202404
O           0.37847213078652    0.77088515970800    1.05105899957175
O          -0.68716183695306   -0.35437974166101    2.90607604716103
H           0.18069954695891   -0.83973305175063    2.75624195027116
O          -0.42418930542122    0.51153469537863   -2.52788907526383
H          -0.88349263346553    0.62882053781413   -3.36039494368968
O           1.51808871038675   -2.30381793898421   -0.23186502861751
H           2.10091528668875   -2.96212838089416   -0.61187799718760
O           1.60978456838645   -1.35982206778741    2.31711469413779
H           1.96399470764810   -0.50060824137505    2.06505810276810
H           1.53607895680565   -1.86260639159696    1.48099775281346
O          -1.03108076206272   -1.56018340892698   -0.87859765185667
H          -0.81304463454004   -0.90055137194023   -1.56990130462482
H          -0.18599794961031   -1.95887629863126   -0.60134088191705
H          -1.57521502367511   -0.66674235475412    0.19722544234073
O           1.91050011594924    0.12893607391570   -1.07649235586632
H           1.79055226322054   -1.41681612907819   -0.60472471916684
H           1.28923865924632    0.28713376595288   -1.80307689176675
H           1.47299429333534    0.51456363122297   -0.29727964349496
N          -1.23346062049059    2.36186196265916   -0.78582317131063
H          -0.73773274606803    1.24252311155110   -1.92031268520457
H          -2.13297692835659    2.08483363398138   -0.40918330188316
H          -0.56565313310563    2.18867434341167   -0.04104424820368
H          -1.26314264563684    3.36242122086008   -0.94351127547056
