    26
        -50.45717739  Gyration_radius:  2.52455433465 Dipole_moment: 4.850
 S           1.71572170114546   -0.15822479508939   -1.17276384330588
O           2.27985847871399   -0.79341974896849    0.00663510742161
O           0.50393604165953   -0.86850897294783   -1.58623447914331
O           1.50641438478721    1.26200169214285   -1.02869837150300
O           2.76733210399565   -0.34547953431945   -2.34230678325494
H           2.96494101676177   -1.27694754142156   -2.31609218493662
O           0.04429490390923    0.75338406543351    2.37568092902942
H           0.05260289117667    0.72694586927455    3.33336750192541
O          -2.88183880284971    0.22547115567000   -0.35159571627237
H          -3.67217927582107    0.62922038811813    0.00849459952604
O          -1.98234093056393   -2.20716004464761   -1.72809661064118
H          -1.11800524900153   -1.86835905003776   -1.99032999575327
H          -2.55048934887825   -1.43293868704001   -1.66616307874878
O          -0.90351508110725    1.93758147210971   -0.06532371679803
H          -0.67341903521767    1.80999454987379    0.86375321934963
H          -0.07821591483787    1.76769691757992   -0.56098912601867
H          -2.19966714564796    0.94301031399865   -0.40352419487481
O           2.42633783390122    1.31424006727324    1.52654065934665
H           2.28906325468120    1.90325663575604    0.77354529196315
H           0.97929913589736    1.00077624365194    2.10085786792801
H           2.56290949781489    0.44338221499926    1.09156413903579
N          -0.80566410699139   -1.16742080304172    0.65420536654327
H          -0.84920150190104   -2.13867417608480    0.94587004252850
H          -1.75083092329311   -0.82375724531337    0.36464527050437
H          -0.41941889935512   -0.54058762939913    1.39437469748234
H          -0.20792503897508   -1.09548335756733   -0.22741656133249
