    26
        -50.45450924  Gyration_radius:  2.45171046956 Dipole_moment: 5.288
 S          -0.92400857949862    1.82857777072051    0.40060440553508
O           0.36551200064747    1.18123217394726    0.55922207388851
O          -1.96941022376898    0.78218318779911   -0.02091487917590
O          -1.41519226757720    2.50873713759923    1.54392107272808
O          -0.82221073018453    2.77794794843000   -0.81301706197510
H           0.02852712406732    2.57362903439024   -1.30863684332482
O          -0.29228729356909   -2.41372435382734    0.96075576699132
H          -0.70764561522789   -3.22954419549839    1.24309774470949
O           1.42905643734326   -0.57768620987835   -2.29905037471152
H           2.00026492036777   -1.04526712032373   -2.90943135765329
O           1.44998304333216    2.09861186169019   -1.81800738815728
H           1.85631522742808    2.01661478556846   -0.94885574933893
H           1.39068012789475    1.18420677693050   -2.16135361131104
O          -1.05667869720911   -1.17318007114997   -1.33169121978956
H          -0.78162766579863   -1.73058115271649   -0.57391385157567
H          -1.60761155442447    0.02365289953114   -0.61395583418330
H          -0.24183834149560   -0.94081785079633   -1.81334350646012
O           1.95924857746349   -0.96993652437950    0.22059066643248
H           1.50514724885761   -0.15104931386712    0.48619571662522
H           1.37652285279059   -1.67881335157826    0.53190700743565
H           1.75423878297908   -0.78034663621122   -1.37519168115925
N          -1.10344715768536   -0.40515355680237    2.51631374143624
H          -0.60293000568612   -1.69948981403542    1.58942792836264
H          -2.02502197951754   -0.11093322822232    2.21335928427045
H          -1.09495703783132   -0.38842779950007    3.52945664359480
H          -0.47062921369317    0.31955759218202    2.19251128680661
