    26
        -50.44806681  Gyration_radius:  2.62571084571 Dipole_moment: 6.896
 S           0.32229446243742    1.81377164181464    1.33917036065852
O          -0.91285551957633    1.71992669750229    2.12257064819386
O           1.24162696723660    0.74397348612055    1.74868525159086
O           0.11887461097387    1.87601430345664   -0.07661731405922
O           1.00602793390636    3.17715421676928    1.76782068703465
H           1.01689996877615    3.15523161181427    2.72043300894943
O          -1.17132138144515   -1.90489583674579    0.15233354912021
H          -1.78180191937632   -2.58033020677023   -0.14487827595362
O           1.92102637226978   -0.58132430304832   -2.74403679702130
H           2.29627063393190   -1.38794894397947   -3.09980893015341
O          -0.55202436524115    0.19029663129997   -3.46198838926017
H          -0.46107096273370    1.12514276362146   -3.65540809463834
H           0.35487611658694   -0.11423119435087   -3.23511817027407
O          -1.73116956511880    0.24298809307407   -1.06446199736387
H          -1.41758190326180    0.15748327192324   -1.99619844169657
H          -1.42368640454830   -1.05256231694117   -0.36252017045014
H          -1.14268298289258    0.92492766318648   -0.68083068761410
O           1.57010415869725   -1.18404147512427   -0.15269447726291
H           1.58034390461354   -0.40744049087116    0.43276480758590
H           0.66958377863535   -1.53603616357071   -0.12831023599066
H           1.86007446889069   -0.71651072726393   -1.77174300245966
N          -0.69534337028547   -0.77675633114953    2.48913484571233
H           0.31235000398550   -0.51195077702682    2.35944755419809
H          -0.88356816995341   -1.24811890602950    3.36681582574693
H          -1.10177045092393    0.21411236229112    2.42861423233072
H          -0.99547637559106   -1.33887505998128    1.64682420306439
