    26
        -50.44806674  Gyration_radius:  2.62580457914 Dipole_moment: 6.893
 S          -1.85192050353766   -0.76110713268035    1.08595587321751
O          -0.65393881031634   -1.20582810106569    1.80978329986323
O          -2.30962044683027    0.51583198587157    1.64133947325296
O          -1.68817054714281   -0.75990280861785   -0.33631316208650
O          -2.98942256295738   -1.81240355732180    1.41886095226570
H          -3.15204414909461   -1.70793726480855    2.35197251704317
O           1.69591868952181   -1.91799729039906   -2.23627415817222
H           2.63387297374986   -2.03524691265843   -2.39287893088223
O           1.36692241487036    1.76139468427218    0.22582486168274
H           1.86093850939611    2.52676841097476   -0.06980244448415
O           0.35113019500166    0.04098249641365   -3.49350368916771
H           0.87155939314929   -0.67438307729893   -3.06444672662268
H          -0.44774856156810   -0.38543519868330   -3.80905091769873
O          -0.55542608140611    1.40551715827626   -1.38209633322703
H          -0.18884308433394    1.03186367961891   -2.21862756614731
H          -1.08066368890698    0.66945518069167   -1.00681682647649
H           0.60104533305140    1.64442807159500   -0.44869032158215
O           1.62115992545831   -1.07707887442130    0.31097534377158
H           1.60571465264901   -1.69955807373002   -1.28155172597703
H           1.65940865409087   -0.11438653202275    0.22619590323223
H           0.78576259781732   -1.28269807878032    0.76467453665570
N           0.00081256979693    1.20733107967106    2.41369774848156
H           0.59701603988457    1.57978295949188    1.62540782613754
H           0.20127105584742    1.64900872795042    3.30401234303104
H          -1.03437808042681    1.23903167678979    2.13242825467709
H           0.09964352224382    0.16256679090241    2.42892386921437
