    26
        -50.44806666  Gyration_radius:  2.62572766348 Dipole_moment: 6.897
 S          -1.02709062338047    1.46819098716251    1.40701706316955
O          -2.03289797640049    0.55791533578661    1.96204036930271
O           0.29352235199727    1.12505221429550    1.95053918688068
O          -1.04535556102034    1.56594374268108   -0.02116877227362
O          -1.38173858575819    2.90494506119237    1.97263550424452
H          -1.47157233478831    2.78111242160881    2.91325518580751
O           0.23025270505981   -2.22638917202744   -0.08789989035459
H           0.20439186906694   -3.09089181295930   -0.49923012404886
O           2.20364634044786    1.01729620331927   -2.38034377465293
H           3.03412575526550    0.64473449922001   -2.67946186295607
O          -0.11077144928671    0.23353945343568   -3.50102957796120
H           0.75567451589798    0.50818192200436   -3.12629859334514
H          -0.58550694396440    1.05145963718820   -3.65967702739805
O          -1.36813365825029   -0.71746294795422   -1.34321638818375
H          -0.42343695253487   -1.64175231013583   -0.62281637614667
H          -1.37383491179711    0.12907088138249   -0.85144129357684
H          -0.95333552122079   -0.48556577238280   -2.20804515278568
O           1.96926266103639    0.02383563570824    0.10134909787880
H           1.42834450146421    0.57452033687078    0.69305172661099
H           1.47755787815941   -0.79745197388650   -0.03725281248301
H           2.11550934219647    0.75925802432519   -1.43536172532556
N          -0.38199015276174   -1.32950345115993    2.31645800177748
H          -1.29756400081177   -0.78143676793188    2.20385577666999
H          -0.16655515006043   -1.85297050430453    1.42481676110077
H           0.26004377867172   -0.50066613654331    2.36883607808638
H          -0.35254788723246   -1.92096552689586    3.13938864992639
