    26
        -50.45529469  Gyration_radius:  2.51430185731 Dipole_moment: 7.417
 S           1.11051137980180    1.04477767379545    1.47054762627536
O           0.59539427315779    1.81186228963484    0.35952607367175
O           0.08447438639034    0.75826514256474    2.47217379245860
O           1.81371342709656   -0.16456938337328    1.07550237671517
O           2.19119167542834    1.95310462585989    2.18764285682439
H           1.75622685588161    2.79344010916342    2.30074715794356
O          -1.37079398110833   -1.88370784017473   -0.12854897689546
H          -2.21386752453205   -2.30724342856188   -0.29509387127485
O           0.92918417720247    1.34281083160644   -2.34702687048620
H           0.89991085983776    1.71100784800160   -1.45054519052471
O          -1.65753869358437    1.11714888276059   -2.86603239315479
H          -1.71890290287433    0.42562488367602   -3.52623448685761
H          -0.69221448252813    1.32387099012429   -2.78097796339701
O          -1.77017612012948    0.62840475512126   -0.23432485804533
H          -1.54960681413982   -0.88030898124812   -0.18098785679713
H          -0.98730455487612    1.12789812952914    0.05996357561981
H          -1.87680439258772    0.86219415776582   -1.18551204029451
O           1.17143919086892   -1.20756484961560   -1.36445063765707
H           1.54659573584194   -0.83680848054348   -0.54806642642892
H           0.30530921616840   -1.55979796591639   -1.12697937341120
H           1.13806720401242    0.39909226066435   -2.21479347984285
N           0.04384006768222   -1.74327277245862    2.09022216073244
H          -0.60066713802178   -1.95477050337523    1.27775456587412
H           0.02316495663329   -2.44893023062645    2.81792503660448
H           0.99371236004392   -1.56784295920327    1.70222330456333
H          -0.16485917182155   -0.74468517435320    2.43534589760208
