    26
        -50.45529484  Gyration_radius:  2.51415511283 Dipole_moment: 7.416
 S          -0.14894360588464    1.57353041194004    1.40987492647279
O           0.09264418356345    1.93895251991737    0.03282143577225
O          -1.55047373274656    1.23940184213513    1.65930646199088
O           0.73734816964730    0.53454247307678    1.90786059469507
O           0.16465758090162    2.85749395461596    2.28193466420794
H          -0.30580860923367    3.56124227612074    1.84427495482582
O          -0.83277540034867   -2.16088419420498   -0.28533734778585
H          -1.34571834316618   -2.81398952324128   -0.76306600423556
O           2.09149832288226    1.03376901909562   -1.65224751270205
H           1.47539004581451    1.55528550854853   -1.11505289154440
O           0.43738852403041    0.04120324151603   -3.46608299376442
H           0.85975080638566   -0.76178751100984   -3.77373359542914
H           1.11352401114691    0.50541093480248   -2.91008146076928
O          -1.26945054253303    0.08521972260394   -1.40150984183379
H          -1.01585638398931   -1.27081001419124   -0.74979699029335
H          -0.88862187616659    0.82034602933317   -0.88813900910128
H          -0.77086781751601    0.08490461161565   -2.25134098605963
O           1.85821249336733   -1.11255395937099    0.04132025663426
H           1.06646873353416   -1.62213396908122   -0.16870334479386
H           2.24328813174366    0.22387273565481   -1.13004555177552
H           1.60550096347032   -0.49932918672074    0.75179622294620
N          -1.14726674596929   -1.21000797611773    2.15206814408720
H          -1.11770210403969   -1.74228232538578    1.23774848356515
H          -1.60322831216512   -0.25144386846293    1.96974591899788
H          -1.56673333562520   -1.73363508843854    2.91218304871973
H          -0.18222518680043   -0.87631764450317    2.35420240693925
