    26
        -50.45634884  Gyration_radius:  2.52121472193 Dipole_moment: 4.570
 S          -0.19376062374209   -0.09728888257726    2.04894213099120
O          -1.13222745560287   -0.97350488455347    2.75125837016727
O           0.87521611280226   -0.85635832380245    1.41773152505102
O          -0.88500615071389    0.78163981676795    1.13401824114122
O           0.48836700402299    0.81477841441188    3.14589515315504
H           0.98287144248795    0.20962755979320    3.69210389368633
O           2.01594385321872    2.67305008317288   -1.00142974751276
H           2.66610367448930    2.96988612010606   -1.63908299111108
O           0.32467339221349   -0.48124191613073   -2.39921783447864
H           0.15910903659105   -0.46951695824806   -3.34194225175973
O          -0.45588210656012   -2.17088090395944   -0.48100726099713
H          -0.18541721409497   -1.65537844134082   -1.27260869061136
H           0.14169244841306   -1.85714702001924    0.23102710784083
O           2.44954706615123    0.06210680052193   -0.60146502065272
H           2.27212727353328    1.75300715843224   -0.75750060201831
H           1.99868053888924   -0.24319432440189    0.20489243495866
H           1.90840874316318   -0.27009537000717   -1.33232231253722
O          -0.50369040628644    1.73809456492707   -1.35024755230017
H           0.32036306021011    2.26186143378677   -1.29186282367276
H          -0.02711763037969    0.38855302787077   -2.03468804179234
H          -0.68177483231506    1.48482058660786   -0.42593784280550
N          -2.56236236960063   -1.22280612348711    0.64561550037701
H          -1.77375104608208   -1.69772627714400    0.05216130052435
H          -3.46295761369083   -1.68646045020606    0.58523147964438
H          -2.13663560980525   -1.21997334392247    1.63589265575391
H          -2.60252059730248   -0.23585234660963    0.38454316895386
