    26
        -50.44443802  Gyration_radius:  2.50944411348 Dipole_moment: 4.857
 S          -0.36364088455911    1.85412184202340   -1.13714836376826
O          -1.51935978331823    1.85716887694470   -0.22797609886533
O           0.84090517753419    1.46859868046141   -0.40851268338606
O          -0.57935201680892    1.09559798657409   -2.33421658010760
O          -0.16930267771225    3.36660234682691   -1.54844824604866
H          -0.13646016073107    3.78784179920525   -0.69609133928936
O          -1.01384704457939    0.22778070366662    3.16470902631620
H          -1.03041922671236   -0.42335793758024    3.86762614894821
O          -0.62912102290755   -2.02816780854898    0.21707951959382
H          -1.07605454224018   -2.86617892883197    0.09625983642819
O           2.89017748794376   -0.22641351349761   -0.94911497016832
H           3.14742404017824   -0.42696353110073   -0.04611680124683
H           2.26387874412489    0.51637013978618   -0.87703123968014
O           1.03663146386293   -0.25407894044919    1.61779415025719
H           1.00633783274739    0.44790494183395    0.93404672390460
H          -0.13162348446583    0.13869055242667    2.70965894443717
H           0.68889004475499   -1.04470496366389    1.18140567894400
O          -2.19864891661823   -0.20055187836156    0.93709473088653
H          -1.86772122813804    0.00185989501162    1.88188497120545
H          -1.95484830762493    0.68448962832173    0.38775719142403
H          -1.57392849899688   -0.96918698985675    0.58624054381124
N           0.50130597643474   -1.41706981024330   -1.93946541974855
H           1.48330352292082   -1.21888918931421   -1.73359626715654
H          -0.14591120160723   -1.79041903726834   -0.74576668435168
H           0.07784567027868   -0.52462003808384   -2.21636908797902
H           0.45353900624051   -2.05642484627306   -2.72170366436921
