    26
        -50.44443811  Gyration_radius:  2.5093433838 Dipole_moment: 4.858
 S          -0.82344250414267    1.90417175394836   -0.74867381716438
O          -0.27542957278628    1.33407707097078   -1.98836941802247
O          -1.51036137937506    0.86675582442372    0.01441595511601
O           0.13952608388661    2.63930580877833    0.01766177823300
O          -1.93805590755157    2.91552550563576   -1.22775716922900
H          -2.45639445469241    2.36147807907403   -1.80165665328457
O           1.81511856354409   -0.99547622861286    0.51913315391110
H           2.73721758480988   -1.18880494996306    0.68927121881723
O          -0.23128724653239   -2.45527180809391   -2.23829930535461
H           0.08226714203317   -3.36046625191307   -2.21239083739588
O          -1.52030401169224    0.17301156225764    2.63825083818396
H          -1.65709400229691    0.56897666416962    1.75867613834836
H          -1.75459465846777   -0.75249149056142    2.53650824953081
O           1.37356496037504   -0.49008394398805   -1.90364380852107
H           0.79104229321626   -1.28163404819678   -2.18153529728256
H           0.70757709447536    0.34534252524814   -1.95429909593665
H           1.59391048173760   -0.65423615643766   -0.88913463681959
O          -0.87703023118414   -1.71815140847353    0.18421667245560
H           0.01947347842570   -1.63372253986471    0.53867726415993
H          -1.20059047967879   -0.79758884425802    0.08896738037686
H          -0.64270261631342   -2.26717467259433   -1.35015102884325
N           1.13453494197645    0.94413153415130    1.95971853704381
H           1.80545417367366    1.34127744673345    2.60398696553037
H           0.29820031584745    0.66938299722210    2.48037701083299
H           0.83885951941295    1.67250054617169    1.30048388045082
H           1.55054044129742   -0.14083496581960    1.16556604486297
