    26
        -50.45450939  Gyration_radius:  2.45172660825 Dipole_moment: 5.290
 S          -0.26088759074655    1.77648241592068    1.06585778896138
O           0.94366066207554    0.99389537296503    1.61532875139775
O          -0.95699990444976    0.96059216785833    0.08751717393150
O          -1.04073526860061    2.21702972102650    2.16525228588094
O           0.36841189111553    2.96935380492687    0.31398093528454
H           0.31430786393999    2.78994597264188   -0.67397907850170
O           0.06691819879247   -2.51997110376394    0.68996147385870
H           0.30345365018318   -3.32406171929055    1.15394408550418
O           1.10576115844435   -0.17537320868277   -2.53207433949456
H           1.37126681349594   -0.54772579286639   -3.37370274291784
O           0.01175078246533    2.28356827226766   -2.14290867888606
H           0.55450665016738    1.49363579882919   -2.33993719095162
H          -0.87097927209878    1.94468246424955   -1.96068086806129
O          -1.04299642875845   -1.22228422969589   -1.49725685869947
H          -0.75923526276929   -1.90967163602589   -0.87596573884261
H          -1.20382194372018   -0.44285534467279   -0.93696068763984
H           0.25806904349928   -0.63153346494464   -2.26088128372661
O           1.95075731589816   -0.68153908624906    0.01732716435882
H           1.39559397412306    0.36392719865444    0.93951646433027
H           1.35484332513141   -1.43407968749376    0.21483866763789
H           1.79105512489957   -0.44030062839066   -0.91339281998123
N          -1.20308704209147   -0.86357944971774    2.34995527485710
H          -0.42993309153437   -1.94618424653580    1.34251941515252
H          -0.51836548193338   -0.40130062467014    2.93746973743532
H          -1.50292253679598   -0.15996372917921    1.68238541470376
H          -2.00039263073186   -1.09268923716120    2.93188565440657
