    26
        -50.44443809  Gyration_radius:  2.50942615054 Dipole_moment: 4.857
 S          -0.83074385319810    2.02905022351389    0.23660180693233
O           0.36882141838427    1.47157495836419    0.85360438417037
O          -0.72689878322888    1.94276966736974   -1.22764640911090
O          -2.05084701151350    1.48532190418516    0.75679357892669
O          -0.81477601398412    3.57658871931816    0.55200193932949
H          -0.03309545625689    3.85278948644245    0.08540034810365
O          -0.49889756206746   -2.00297998899427   -0.54448756946706
H          -0.98091859968910   -2.78690468276259   -0.80854065389393
O           2.06159415476899   -0.23590036621060   -2.60527573688503
H           2.52159864904376   -0.99027241474019   -2.97631845991442
O           0.78767302618958   -0.21350980318753    2.93935158764081
H           0.62004153098761    0.53804970870479    2.34248262984465
H           1.63563666585846   -0.56946084322170    2.66346561066651
O           1.85441032714947   -0.56314585850352   -0.02079818188968
H           1.17767759469080   -1.25479244677422   -0.02983703508296
H           2.16355152780500   -0.29413544916160   -1.61554696820383
H           1.39239246949680    0.24062983998425    0.29807706169097
O          -0.48345659300869   -0.23981970664559   -2.33686017768265
H          -0.65437662265688    0.70904488072548   -1.87342511129863
H           0.50441857580470   -0.20922869308553   -2.59435377272973
H          -0.54869879026041   -0.97183509276915   -1.58570799298392
N          -1.53601539563161   -1.10849576807510    1.55934080290070
H          -0.97960602387313   -1.63708161370181    0.37866123343447
H          -1.85222847790931   -0.16308795075392    1.31706786774522
H          -2.30499882828429   -1.60994989676152    1.98379502487170
H          -0.79225792861347   -0.99521882326553    2.25215419287667
