    26
        -50.46742657  Gyration_radius:  2.40230009716 Dipole_moment: 4.778
 S          -0.33210549326545    0.12131978837478    1.68492376222758
O          -0.67661345088444   -1.11048551876330    0.76375147707001
O          -0.13704517411791    1.26480738671743    0.79380615892265
O          -1.55430479499411    0.26856375415225    2.47155546695933
O           0.85664855291674   -0.18831713366436    2.44127609161284
H           2.18064294643428   -0.23024027451277    1.52656668033118
O           2.94227103513326   -0.33824314540910    0.89783684051503
H           3.67628841484398   -0.64826325349859    1.43038394780482
O           0.56816143202507    0.04998370627051   -2.51188981391880
H           0.81032819374347    0.22553820711737   -3.42171823439964
O          -1.73368642023149    0.96056623245706   -1.22515361846497
H          -1.13755508945076    1.26215219327664   -0.49683255415965
H          -1.13188606849815    0.48446023051311   -1.82230335707394
O           1.92424955439311    1.55903628744501   -0.85474879128986
H           1.09552953468181    0.69023568854984   -1.95470998332300
H           1.19172982711469    1.65766044254070   -0.21322835977457
H           2.57372645444972    1.02055255528325   -0.38054440406774
O           1.31565314417158   -1.83798363991827   -0.67292774248401
H           2.05024544196161   -1.38480998400630   -0.21584826217088
H           0.12238907565051   -1.44597526680016    0.24582999474708
H           1.09868514729461   -1.30187123888831   -1.45715455715668
N          -3.18129117461419   -0.22280962894295    0.58685323349864
H          -3.18975256626917   -1.23446289645565    0.49250864371047
H          -2.54548845938003    0.01813830276851    1.46012739766274
H          -2.66698864706522    0.21021820565092   -0.25836544767995
H          -4.11983140604709    0.15022898974102    0.69000543090062
