    26
        -50.46742653  Gyration_radius:  2.40219320443 Dipole_moment: 4.771
 S          -1.33166535123001    0.62689976454744   -0.89242719813781
O          -1.34151474952183    0.25119743534115    0.63834627646472
O          -0.19573462265878   -0.07797386846975   -1.48613596216412
O          -2.59939394555294    0.06703954850070   -1.35468676641036
O          -1.20737116436544    2.05900257236436   -1.01353782732837
H           0.24866500422615    2.59489167406418   -0.58505474983304
O           1.12849995023724    2.87356466169039   -0.21716963630304
H           1.12032271160636    3.83188792964147   -0.22291716120194
O           2.11177097965419   -0.95230518016794    1.12470381907564
H           2.95482964315427   -1.31978747914961    1.39205462347898
O           0.08094887429528   -2.31899779245632   -0.21363240833855
H           0.70906691875418   -2.02766724879199    0.46905263423567
H           0.06077578018900   -1.55664221156222   -0.84228715798862
O           0.65950327361323    1.23824788817521    1.89709521304025
H          -0.59448973954200    0.69310024567055    1.15395228652047
H           1.25027759863999    0.46921482753968    1.80170710707743
H           0.96728266047408    1.91121879579583    1.25979698058562
O           2.35172331663020    0.51827992475941   -1.02961207747777
H           2.24791905655199    1.45248894181105   -0.79882290330123
H           2.28390198005198   -0.44515131246931    0.28103139254912
H           1.47891278303166    0.27157823638390   -1.39723994754556
N          -2.49998016547523   -2.06515360882247    0.01810236487991
H          -1.43945800299735   -2.26956439768317    0.01974266292564
H          -3.03643830174486   -2.85344885359518   -0.33039721422742
H          -2.79208166663713   -1.79929682162010    0.95426835038069
H          -2.61627284138245   -1.17262366149608   -0.62593269095274
