    26
        -50.45376619  Gyration_radius:  2.4600001205 Dipole_moment: 4.213
 S           1.15198800520593    1.11501324945726    1.16693408366480
O           2.11140796154349    0.14092589439410    0.44958447716150
O          -0.14997021692037    0.99523781162113    0.56576741431850
O           1.19602805433107    0.90591419227484    2.57590255238360
O           1.74490150221202    2.50104075108957    0.83252077757239
H           1.70544862390267    2.53017791602147   -0.16012394968772
O          -1.23999940183450   -2.17252514324864    0.28859581346813
H          -1.31167771330813   -3.11741356687106    0.43094859289232
O          -0.44030258368364    0.57155317551447   -2.64985619808007
H          -0.82065822390786    0.74209274884973   -3.51240935778825
O           1.64708447305961    2.06537998281643   -1.72500225746368
H           0.81778079261918    1.63313227926262   -2.01563017384132
H           2.33554584887728    1.39905964354426   -1.79819116582641
O          -2.27190077314286    0.18575248239833   -0.82160716385288
H          -1.70732917121487    0.65512428192987   -0.18509287432963
H          -1.20320774307844    0.48871348778904   -2.00986651315248
H          -2.17932923087850   -0.74373014730993   -0.56632239243665
O           0.85531506037171   -1.32472704177584   -1.16524980248199
H           1.60995841495009   -0.48530636661935   -0.20613410424389
H           0.10095220282498   -1.67833595238871   -0.64221094018945
H           0.45588626181121   -0.71257604836381   -1.80936549474098
N          -0.86652014188255   -1.12847566069871    2.69971250780070
H          -1.70754486314271   -0.64076793468997    2.98561432180803
H          -1.09507853144578   -1.75623646820195    1.19160227339007
H          -0.13537323016115   -0.42182972076144    2.62166434920856
H          -0.60340537711230   -1.74719383603549    3.45821523445116
