    26
        -50.44706773  Gyration_radius:  2.48433556739 Dipole_moment: 6.052
 S           0.33389506189518    1.97350183143884    0.05511784737598
O           1.26068348657875    0.89871242019742    0.36902578755313
O          -0.76446771392216    1.46311119949547   -0.79302402968748
O          -0.14290079954699    2.71978681719103    1.17704871649688
O           1.14522119037447    2.97203918307923   -0.87325513826274
H           1.71497485937208    2.40940930032866   -1.39046975625959
O          -0.61063465550464   -2.22393090959782    0.44109055003265
H          -1.37563977662690   -2.78635993133810    0.56963518603612
O           1.72066188744514   -1.13023771438407   -2.49650347773406
H           1.94167178704914   -1.89135903907044   -3.03568916736610
O          -2.65420386543786    1.73443324827264    1.26937960879454
H          -2.72023596171071    1.64044252191432    0.31498495487500
H          -1.87090026934919    2.29819907670976    1.39475262006828
O          -0.67933368919140   -0.82062116815197   -1.67343369263827
H          -0.67800765052917   -1.42235664113760   -0.83041786624277
H          -0.72856527945048    0.20107139607062   -1.30234750172599
H           0.24334505861574   -0.91809599679700   -2.10050987775892
O           2.14444351351874   -1.59987754796995    0.02612252074247
H           1.98460160196062   -0.67337945960993    0.28583688102705
H           1.35896656089551   -2.07984586406707    0.31977648846988
H           2.05027380383390   -1.32397982815303   -1.57215862974629
N          -0.75560564384182   -0.24607555243138    2.04456182953669
H          -0.64459561692679   -0.37210409156894    3.04271839281795
H           0.01572034629894    0.32828313934352    1.71205880589782
H          -0.68314215390671   -1.45426294072856    1.15339915613573
H          -1.60622606191253    0.30349656098197    1.89229978159153
