    26
        -50.44706803  Gyration_radius:  2.48427515544 Dipole_moment: 6.049
 S          -1.72285405277228   -1.02034772740733    0.01249394737236
O          -0.48957536101770   -1.71484544508874   -0.41590679405237
O          -1.38392192907154    0.17499720021146    0.76682440184884
O          -2.64311525766276   -0.82624624325747   -1.06372954349721
O          -2.40789862760274   -1.99848061059733    1.05700171661951
H          -1.94422104430645   -1.83962115482962    1.87460023174850
O           1.80085549085290    1.43232124602248   -0.47197186308124
H           2.49130507080468    1.59206142080012   -1.11684383435700
O           1.36629572312579   -0.51620532700388    2.88670272555404
H           2.13050876331534   -0.37222248908187    3.44720536456634
O          -0.90572131195802   -1.06099578028141   -3.11674213849907
H          -0.36446023539325   -1.71460185322661   -2.66510195571434
H          -1.72273042555575   -1.02981834831925   -2.58901498854355
O           1.69412678631872   -0.95366381864488    0.38976063593659
H           1.78047691977287    0.01326571124140    0.02933783091701
H           1.60281185347803   -0.87793103716044    1.40412992051689
H           0.73176211462906   -1.31419626277463    0.03125234318659
O           0.40383479127820    1.73136867262474    2.00017679622506
H           0.96149790440538    0.38176989830124    2.71213518914875
H           0.96015989299447    1.95274205282408    1.24186725303817
H          -0.38720857742337    1.30883187119429    1.61649650370860
N          -0.45042034870314    1.35212770168094   -1.66816834574976
H           0.89073604017801    1.45934934718568   -0.99652269627481
H          -0.85685326565354    2.18492522256227   -2.07537169889974
H          -0.47690954046979    0.61345923455483   -2.37702228843535
H          -1.05848133358031    1.04195652843574   -0.91358870327319
