    26
        -50.45450939  Gyration_radius:  2.45173823456 Dipole_moment: 5.290
 S           0.22464398752607    1.14557667049215    1.73146616889400
O           1.12376556668430   -0.10067641150439    1.79337186746285
O          -0.63730903103878    1.05741468352424    0.56668461238084
O          -0.43843579266924    1.27482924609056    2.97823827235749
O           1.20643083483564    2.31411744686177    1.49692796163826
H           1.14333496793760    2.59704381911730    0.53398710004645
O          -0.70174155633099   -2.47928365884913   -0.44056333256228
H          -0.73034357822500   -3.43496075160386   -0.38003336709353
O           1.11263692333641    0.61881719207044   -2.45836529666641
H           1.29331467048488    0.58328929912206   -3.39834573627711
O           0.76786063457835    2.87383545606242   -0.97842530132439
H          -0.18207226560251    2.75222621808664   -0.87776223575040
H           1.06480177692574    2.12655372925415   -1.53591578688206
O          -1.29008421887599   -0.11778735344561   -1.77376381485955
H          -1.24626809814436   -1.05364366016133   -1.52626473850253
H          -1.23997870184458    0.35798843899060   -0.92619276815472
H           0.15798284296949    0.34966935233097   -2.33022561494783
O           1.66348382863389   -1.14244251350400   -0.44229499783973
H           0.86594642245566   -1.70561721286615   -0.52720165515499
H           1.62097600727581   -0.49282199621014   -1.16764123112768
H           1.39987072816639   -0.48115601201470    0.87854026575415
N          -1.50049578451872   -1.40648270909719    1.86681248291793
H          -2.35320430607242   -1.62674855651814    2.36799844546860
H          -1.03627219876221   -2.12490159249921    0.43364962317008
H          -1.55346735577879   -0.43258818441781    1.58505420763711
H          -0.73537629535676   -1.45225095863675    2.53026485833414
