    26
        -50.46047693  Gyration_radius:  2.51691427054 Dipole_moment: 5.325
 S           1.11988824841019   -1.77713723175800   -0.65643237058790
O           1.24290651464542   -2.33435723542154    0.66636166064675
O          -0.17655556929003   -1.18639552282894   -0.94866260996347
O           2.18944804195340   -0.83559672130718   -0.98938475411464
O           1.27426028862968   -3.00082161089363   -1.65960487333704
H           1.80380417380565   -3.59655014792356   -1.14014067077033
O           0.30125327094996    1.94836280577380    1.09603335735685
H           0.60007433859872    2.59955821144108    1.73171680706908
O          -2.17972754367824   -0.63987833610381    2.57344790675884
H          -2.78255183897963   -0.16075606390420    3.14299550556565
O          -1.06384276265181    0.67938507660054   -2.61719352611677
H          -0.81024483315508   -0.20635215150905   -2.28955827422537
H          -1.81136609196914    0.92749764974879   -2.05834659080294
O           0.53528506523187   -0.32594582521074    2.25447095960318
H           0.85772868177515   -1.08383283210911    1.72496014642714
H           0.44399141450906    1.04911430087977    1.54272752780253
H          -0.37492235261927   -0.56390427220946    2.51463816188353
O          -1.95056838483787    0.53703132385033    0.13058068471131
H          -1.38762177357439   -0.19465501982694   -0.18803801490958
H          -2.29915599739014   -0.28223123535856    1.66984955782397
H          -1.33255497303233    1.19875363100891    0.47148249512624
N           1.16850752021386    1.48071588814448   -1.40665060252262
H           1.79265513901661    2.14106484947174   -1.85621942024252
H           0.89018902975908    1.79832524864030   -0.45083092865770
H           0.29811934941720    1.30674664385184   -1.98137788424241
H           1.65100105428853    0.52185859691206   -1.27682424024430
