    26
        -50.44706775  Gyration_radius:  2.48425102093 Dipole_moment: 6.051
 S          -1.33125104768678    1.42135949881819    0.46138600929932
O          -0.27163475473808    1.73352614162077   -0.52168449782272
O          -1.47392445441999   -0.01854868030861    0.59898389938453
O          -1.17091838074538    2.14183359750820    1.68533186331562
O          -2.68011643840253    1.91627967046404   -0.21160288562047
H          -2.92627557641845    1.21077301070941   -0.80348208742639
O           1.76948453080589   -1.54378465300405   -0.03810685736848
H           2.72588957289067   -1.59764349494658   -0.05961083200833
O          -1.19227301031655   -1.53395441022836   -2.58640060107006
H          -1.04698589854003   -2.20455556636061   -3.25578163196456
O           1.45586762818456    2.72302983310986    1.46247926021583
H           0.52100373234922    2.72973651338009    1.73303496771449
H           1.41990367677245    2.81729703648523    0.50647711010746
O           0.75619781104621   -0.06108510183334   -1.83310433109187
H          -0.02085789890414   -0.59448306184312   -2.22675513723321
H           0.30219285347469    0.75160507632481   -1.26883756646815
H           1.20445442999277   -0.67206120549299   -1.12746791836513
O          -0.91334730159102   -2.50881975017285   -0.19141006903062
H           0.04032834102065   -2.50563705643507   -0.03635386560685
H          -1.24062237148293   -1.69741084526077    0.23983218063431
H          -1.22297346745116   -2.00584945811938   -1.70490606054752
N           1.06522107641514   -0.06462475428836    1.91689747142109
H           0.06655108869668    0.02239433172449    1.74242303803620
H           1.52201031870636   -0.97178024156196    0.80809499040471
H           1.45164406689264    0.88031121206409    1.83611680823922
H           1.19043147334614   -0.36790763243082    2.87444674281609
