    26
        -50.46047702  Gyration_radius:  2.51695311451 Dipole_moment: 5.329
 S           1.15342817174462    1.84628641003594    0.32365617411957
O           1.12371494898417    0.51197311922629    0.90157301372786
O           1.65965551326847    1.90731982140290   -1.02365296532874
O          -0.14941750179646    2.49343022468481    0.48221010553731
O           2.17623973092876    2.67968152280681    1.21073470224320
H           2.52510118215861    3.28567483022297    0.56566475631032
O           1.54939683174729   -2.22117385209245   -2.10960875141716
H           1.36989779849039   -3.06738168021830   -2.52078243675387
O          -1.86563236473724   -0.73511610015831   -1.03243977103634
H          -2.55986398808642   -0.85807349261009   -1.68077551478001
O          -0.28396952111213   -0.68415095924469    2.80977593331642
H           0.43604416376988   -0.17047682440385    2.39284646035911
H          -0.19125901339852   -1.56565529717548    2.42630087676125
O           0.16197056083683    0.14472165849841   -2.33015324611758
H           0.70750105350796    0.84481753120409   -1.91665490844039
H           0.75425605618482   -0.62677871033840   -2.41262450829021
H          -1.08445368126459   -0.34008788422412   -1.54454578208678
O           0.29641741361126   -1.98388451798830    0.29443742941810
H           1.23920692738879   -2.28493806102648   -1.18311762178456
H           0.72891384073097   -1.12290963863861    0.45403940798688
H          -0.54550504748939   -1.76669008511698   -0.12984059572562
N          -1.87247238572960    0.74032721193303    1.21650441305372
H          -1.38315601445152    0.15067442717811    1.94525889168801
H          -2.74316135809325    1.12575441584330    1.56446764158041
H          -1.18475093611497    1.52836901546102    0.94247415024436
H          -2.01810238110044    0.16828694488631    0.35425215523839
