    26
        -50.44706760  Gyration_radius:  2.48428562675 Dipole_moment: 6.050
 S          -0.25465566147039   -1.71567865161301   -0.99898076975345
O           0.89895857553104   -0.83166155078545   -1.01666068221620
O          -1.05498689666843   -1.47936597447097    0.22171721960532
O          -1.05174892087126   -1.70799184744777   -2.18533892669869
O           0.33743918210780   -3.17793994732922   -0.83011343320653
H           1.10164601782318   -3.06457645583253   -0.27171483440552
O           2.24835230406036   -0.59943780469293    2.24763987164483
H           2.73912586760235   -0.26017349856750    2.99792752760953
O           0.00756362177925    2.22658762893044    0.74618348844514
H          -0.57238826790071    2.91931876358170    1.06533813514831
O          -3.16927200492877   -0.33182314176286   -1.23171371956251
H          -2.59975639612576   -0.90386159883120   -1.77538175517218
H          -3.09603999548275   -0.70543256989214   -0.34901713947358
O          -0.21741132888345    0.01460300776573    1.97210366867276
H          -0.14048947312863    0.93737572583642    1.50854360489978
H          -0.60027710944397   -0.66284901676490    1.21115327409168
H           0.73718830824753   -0.29376975487192    2.16430225825381
O           2.49624437050911    0.94967459297626    0.17344261970892
H           1.85328213335727    1.65611824802759    0.31870463341112
H           2.51102990129374   -0.04772379837003    1.45560519184507
H           2.04819651035850    0.32090007728650   -0.42269005050953
N          -0.88513772599235    1.35677384731453   -1.47909303633677
H          -0.36521703707847    1.93440310424081   -0.19211386698233
H          -0.85968243345892    1.92972400463861   -2.31314559428224
H          -0.27804398331302    0.55425702951374   -1.62992090468628
H          -1.83391956797879    0.98254959115843   -1.38677676010159
