    26
        -50.45376632  Gyration_radius:  2.45998103446 Dipole_moment: 4.216
 S           1.48369142192733    1.08656638478100   -0.73988244840631
O           0.89557689237938    1.92571969784268    0.41487914256143
O           0.89219139352680   -0.22453761284441   -0.69544661644917
O           1.34280473429101    1.77884819674565   -1.97760070701511
O           2.98033637315140    0.98605292950932   -0.37292845230534
H           2.96653214467393    0.53116338816894    0.51055552126675
O           0.30061349950604   -1.65868001902167    2.16729645354421
H           0.29651877820109   -2.39320867359681    2.78230714017879
O          -2.46128649911651   -0.20705859996482   -0.48999725702685
H          -3.36641384898261    0.10463995981984   -0.53342943995657
O           2.46691060687736   -0.01116402249931    1.96867912510398
H           1.75951430076494   -0.68831833538866    1.95785964332406
H           2.08712189456391    0.76512036130436    2.38878014601446
O          -0.65446571577112   -2.32665622646340   -0.17500876620189
H           0.00252641506704   -1.74163833848147   -0.58773584185142
H          -0.02800745652973   -2.01333369788163    1.29276540342318
H          -1.48318287929162   -1.83260776883981   -0.25767359642111
O          -0.96980267900204    0.68479340837960    1.56005460628833
H          -1.55165120669467    0.37996956603286    0.82781466104607
H          -0.55752382993365   -0.12419446209461    1.91348366195960
H           0.11112163846765    1.43970363648630    0.88685242713084
N          -1.28454929319662    0.76187051346742   -2.66224158918752
H          -1.11803151776801    0.00681902545664   -3.31718213472128
H          -1.99485903468660    0.15124166341440   -1.30475833172225
H          -0.36742954968186    1.11278542500578   -2.38694812479191
H          -1.74825660274165    1.50610361065851   -3.17049462578567
