    26
        -50.45376626  Gyration_radius:  2.45990862486 Dipole_moment: 4.216
 S           0.80064265901888    0.84882092336407    1.60306623143409
O           1.81375387780813    1.08578152941200    0.46251185709479
O          -0.40647036092835    0.31079948150048    1.03358849681765
O           1.39150279218930    0.06456650983239    2.63594058050548
O           0.52694307119501    2.27410788692541    2.13075109539168
H           0.16025577449817    2.74337019858533    1.33505358358112
O           0.09384862482429   -2.29996339431108   -1.01990657910214
H           0.52402269494515   -3.04244044243669   -1.44652515797491
O          -1.48547940882511    1.39179446086963   -1.84435292407493
H          -2.15596711517434    1.69867209235200   -2.45597453520619
O          -0.17429612945351    3.14273427056367   -0.21326728008747
H          -0.74621355597922    2.51899029455674   -0.70602994389142
H           0.68128723233528    3.12276647396577   -0.65027793036989
O          -2.21953184631708   -0.77869150079189   -0.58118726718910
H          -1.62512661325409   -1.47079397751314   -0.90572678594978
H          -1.76986015185146   -0.44526467563685    0.21309091126439
H          -1.86713900217309    0.59753110808599   -1.37316285654094
O           0.94854603537581    0.15305951203305   -1.70856895742748
H           0.66345990269117   -0.76232179184858   -1.48840696960286
H           0.12498805009228    0.64197342222386   -1.88719362662752
H           1.48391494424626    0.69083897865829   -0.43705783287618
N           0.69004368877822   -2.53326860246373    1.55547878179721
H           1.44036476516786   -3.16009890068402    1.82266091828727
H           0.30935664317374   -2.36721494245647   -0.04069592578944
H          -0.13839206768681   -2.81954197371719    2.06399059099886
H           0.93554550530401   -1.60620695107034    1.90220153553767
