    26
        -50.46229045  Gyration_radius:  2.4119123428 Dipole_moment: 5.672
 S          -2.01699530964300    0.00540727850929    0.13465589214460
O          -2.48640384458685   -1.33724353152541    0.33826902006628
O          -1.66594955483512    0.69070583276204    1.37525858866713
O          -0.95231412956946    0.14173558182154   -0.85129878643350
O          -3.23810283393192    0.81574077236532   -0.48607290955095
H          -3.98684924075524    0.39448485488162   -0.07701807551790
O          -0.02791056077416   -2.27344037143925   -1.90750832242520
H          -0.63477203809544   -1.53927754252795   -1.73013493738071
O           1.96938679134050   -0.60622697311840    1.42562605174559
H           2.40288300774040   -0.99821409868257    2.18451901116165
O           0.49220054125856    2.41726419607297   -1.27391416293978
H          -0.27572165852766    1.82159035701274   -1.33573940646994
H           1.21739982643675    1.90690924535844   -1.66644474004304
O          -0.00279907995494   -2.19091598192141    0.82015658108287
H           1.19653884487016   -1.20796972664327    1.21843805540328
H          -0.94081996110236   -1.93282951827735    0.84678482828520
H           0.12202967644158   -2.49419403179081   -0.10066809569640
O           1.78660849462514   -0.01861650587951   -1.34127076283972
H           2.21089033237868   -0.31120379477055   -0.52714986521456
H           0.78094596761900   -1.87064063661294   -2.24163383084039
H           0.83332654009585   -0.06898980295511   -1.16335773966680
N           0.66821290818285    1.75359910784233    1.28789553634399
H           1.30583805759615    0.93216810131712    1.38710476985718
H           0.85289741477900    2.45996696274668    1.99110750202117
H           0.71933084403029    2.14961290609284    0.30578034739374
H          -0.32985106561911    1.36057732931699    1.38661542083952
