    26
        -50.46603995  Gyration_radius:  2.42517723389 Dipole_moment: 5.933
 S           1.05374390665153   -0.47483857717835    1.69486987503466
O          -0.31500652844059    0.03684478342309    1.84362121545722
O           1.12881548487108   -1.90925358237449    1.65547244564815
O           1.69711073019650    0.20226937203598    0.58368123979239
O           1.82833526671118   -0.03201038610339    3.00486138144529
H           1.90519949798107   -0.87157974538654    3.44396626467209
O           0.09591571501607   -2.79043070011790   -0.68806889418219
H           0.58690888272901   -2.65399250664752    0.14149973936865
O          -1.98141578944868    0.35786944137600   -1.51027471304221
H          -2.72282678340543    0.26012902003272   -2.10776187702323
O           1.59720736212227    2.31098968483582   -1.04007449967861
H           2.01410564567672    1.72609937921698   -0.38330498368191
H           1.51326972991926    1.75409214967766   -1.82699898598289
O          -1.98163117403856   -1.45915674284605    0.29283957972297
H          -1.35682348194132   -2.12513884445244   -0.08336344371645
H          -1.48882722230494   -1.03394851295589    1.01557331469332
H          -2.06430753342121   -0.38717718485304   -0.82647744217545
O           0.75309216710025   -0.31100663502844   -1.90185231621121
H           0.47332912166143   -2.17248597139390   -1.33290936815149
H          -0.19101482122165   -0.09792047530165   -1.86284425287498
H           1.11131572824435   -0.20983807253248   -1.00126228413110
N          -0.74164179866436    2.00261569673454    0.18260596003469
H           0.17401846711394    2.25015091313013   -0.29935333999340
H          -1.36741061404412    1.54707229291388   -0.51901262440864
H          -0.54194615559574    1.26276693849096    0.92709961276176
H          -1.17951579336357    2.81787825522421    0.59746840657279
