    26
        -50.46603996  Gyration_radius:  2.42514097372 Dipole_moment: 5.932
 S          -1.14416828818416    0.91563950540435    1.43532879220970
O          -1.34524314189672   -0.51891308134597    1.19244671829100
O          -0.20698155151276    1.19341415690484    2.48853775449965
O          -0.86153247930061    1.57698302012574    0.17439436144573
O          -2.54160377493882    1.47200182063648    1.93529326065463
H          -2.34348482540214    1.61729932705153    2.85363220807328
O           1.24310087323753   -1.83299009495901   -1.19526910302645
H           1.88152656475018   -2.48280169953807   -1.48919729419435
O           2.28870029700478    0.55874669872618    1.64898023060431
H           1.49616390509662    0.93141944181836    2.07423018871725
O          -0.98578242511384    1.36509474945613   -2.47768144681678
H          -0.02604502687424    1.44652212008587   -2.57112430434501
H          -1.17343636892584    1.78432344906917   -1.61963486176779
O           1.48815932056717    0.99418356472836   -1.03821964346189
H           2.30725816045024    0.91511146185362    0.74741001516470
H           1.48686396009533    0.03111473582238   -1.14200786747080
H           0.68822452251334    1.23322964081017   -0.53555013813363
O           1.06415541677995   -1.77935883430168    1.35780276844316
H           1.22566391116929   -1.88633612246674   -0.18218316982659
H           1.66356526771878   -1.03031474245787    1.59237026337708
H           0.16561561293095   -1.43343316553999    1.49533307817185
N          -1.29301326555816   -1.02852025610777   -1.36542689351414
H          -1.25193446769922   -0.10875932813008   -1.89853045721063
H          -0.36752105306828   -1.50353120888488   -1.46162716162360
H          -1.40864977992743   -0.81134267884727   -0.32573963927045
H          -2.04960135398340   -1.61878248992402   -1.69356765890926
