    26
        -50.46846772  Gyration_radius:  2.39936651744 Dipole_moment: 5.644
 S           1.00973442223589    1.46054041153112   -0.39950781871310
O           1.60547990701473    0.48548117699031    0.54625947627116
O          -0.39956001316690    1.13782968639686   -0.59231267636200
O           1.20713547176133    2.81713453098768    0.03419690224785
O           1.73345192855036    1.24670243766743   -1.76324721259389
H           1.44973763851917    0.35710189693962   -2.08429011304008
O          -1.44819786838151   -1.82444260380392    0.89163522927741
H          -2.21847889103426   -2.35821812340177    1.08997109563825
O           1.06590856859381   -1.23430846393286   -2.46362131695325
H           1.77484828497561   -1.57529711566937   -3.01169917362101
O          -1.03882024783851    2.83457498834289    1.43843572616920
H          -1.64415431882349    2.75212033075087    0.69534416528795
H          -0.16834963124540    3.00572323312100    1.00900763782107
O          -1.61736524309886   -0.95373382806577   -1.55120358801196
H          -1.26676202420741   -0.07436163337525   -1.28162864344856
H          -0.93869029364257   -1.29810656546930   -2.14351349736739
H          -1.56124393537815   -1.52041518607830   -0.05867981962426
O           1.26763630130677   -2.07598684541594   -0.00058551130031
H           0.38943896380524   -2.20973853299041    0.38182429853616
H           1.16962144829277   -1.66310494230456   -1.56785320637578
H           1.53621305834804   -1.17114757435515    0.27126101444341
N          -0.40172978360842    0.36065346269543    2.14612086190403
H           0.51998471031476    0.37229658540985    1.59286574933616
H          -0.81508309575412    1.31870985012585    1.94351883513814
H          -0.96898790640133   -0.41311689360012    1.73905198420343
H          -0.24176744113858    0.22310972749524    3.13864960113717
