    26
        -50.45450920  Gyration_radius:  2.45155791161 Dipole_moment: 5.292
 S           0.31147052660142    0.95419571049934    1.83077558711408
O          -1.19249839272988    0.86300003544488    1.52234650518321
O           0.51087366299642    0.56377147136415    3.17934878082958
O           1.05136391878763    0.19393666590652    0.83979318456610
O           0.65430259951989    2.44572315164119    1.62442571981643
H           1.14012049042208    2.54463184148046    0.74956130533284
O          -1.34251955312258   -2.12524158295912   -0.71586944371593
H          -2.06402159657155   -2.74837750754414   -0.81054419207686
O           0.38478865678260    1.17340305947228   -2.47971803622590
H           0.47239107704562    1.25890888074063   -3.42970339660477
O           1.94400637894059    2.37809990046872   -0.60409361110729
H           2.39992372251337    1.56659007885938   -0.35693943393976
H           1.33326629778207    2.12049337246524   -1.32359780079323
O          -1.76787107658441    0.55080003077762   -0.91582370885506
H          -1.68861456041143   -0.42534837452370   -0.95067146645128
H          -1.42676488854410    0.80713791023983    0.52219282517466
H          -1.07553024804530    0.90517664875705   -1.50334717253850
O           1.12247813935903   -1.12951803360916   -1.51144320175071
H           0.73092306952046    0.26875386779852   -2.23088639237703
H           1.24719370691273   -0.76238641832497   -0.61873050550429
H           0.32869557805659   -1.68007274841056   -1.43568017856128
N          -0.60028684940056   -1.99001152176166    1.84235213153596
H          -1.08129322122038   -2.13156884596182    0.25031219612291
H          -0.37441242471779   -2.77273041676102    2.44492937231432
H           0.23963196635904   -1.42893541244008    1.74066427552661
H          -1.25761698026881   -1.40043176361566    2.34034665698299
