    26
        -50.43974337  Gyration_radius:  2.62983665586 Dipole_moment: 1.934
 S          -1.39531793481022   -1.25465597322217    1.62401129412238
O          -0.37642603325707   -1.94583813035278    2.37806213815186
O          -1.43880739474845    0.18460327514052    1.97821960944760
O          -1.35533556912151   -1.43535098424505    0.19971326873635
O          -2.78819541131361   -1.83833158806939    2.12747974523406
H          -2.65470920882831   -1.94083677677777    3.06549034184574
O           0.50177949638197    0.14380540768640   -1.48083522815396
H           1.13757148796490    0.74057302212283   -1.91145825659524
O           1.68443969328334    1.86843100241994    1.22558612589569
H           1.76204507568181    2.10549277008851    2.15054133461471
O           2.52604684107465    1.93973694957997   -1.51851431068770
H           3.37612700581543    1.49641312550591   -1.52370848852845
H           2.32147016550558    2.11308992987375   -0.58829835850785
O           1.50808202539386   -0.71006816644336    0.97186106546928
H           1.70745530304414    0.86511140469333    1.19207168772299
H           0.90850888508239   -1.21657025847216    1.55499995583257
H           1.13386237435699   -0.78348928157227    0.08068996154879
O          -0.67703171243501    1.63238599232631    0.17541544060049
H           0.17317653962927    1.95345878325288    0.60307016720850
H          -0.32036420336103    0.98245936467262   -0.55578966799179
H          -1.11379328760320    0.98019995886036    0.96734817313840
N          -1.41362415950283   -1.22446512600202   -2.67695555836792
H          -0.10241441804538   -0.29801031606802   -2.12950340852334
H          -1.26255059806172   -2.09248106459371   -3.17550962175050
H          -1.57953306287513   -1.46018265879735   -1.69784228414342
H          -2.26246191902854   -0.80548065139452   -3.03614511624528
