    26
        -50.43974323  Gyration_radius:  2.62992539606 Dipole_moment: 1.960
 S          -2.24453879230482   -0.70989556400059   -0.78693584713559
O          -2.65223088563261    0.45684615111721   -1.53336015093395
O          -1.21861566281952   -1.48543651254034   -1.52488595117148
O          -1.83897501149983   -0.47766450814865    0.57123235113622
O          -3.51612939690733   -1.66631232675546   -0.73474298372708
H          -3.89458473805021   -1.57248280773768   -1.60432828700572
O           0.89180495620667    0.47720599577313    1.20153263190359
H           1.81877353046894    0.76411817123606    1.26669728984192
O           1.79869389906142    0.44613227919139   -2.09594209977415
H           1.67849623070854    0.32613247238560   -3.03876604893471
O           3.25787555544147    1.33927794701017    0.20969162091466
H           2.95819497456325    1.01020375940834   -0.65007346273681
H           3.27753730376896    2.29492286465028    0.13472933848771
O          -0.29415170589744    1.58493701247487   -1.06311336601164
H          -0.18218881185684    1.36527399398053   -0.12569836895520
H           0.99976707092170    0.96393508835197   -1.77671068594883
H          -1.18829294099782    1.27155532816818   -1.30498190029417
O           0.97538000011479   -1.40355855714367   -0.47271884949917
H           1.44643837367895   -0.85787317706378   -1.17222708350041
H           0.87300916061225   -0.71799996245967    0.30468539648168
H          -0.04518517739376   -1.52004642141100   -0.90449089925521
N          -0.60813722336376   -0.42203064226929    3.17995612883222
H          -1.24149808699098   -0.52109146051638    2.38569178953301
H           0.51282614469453    0.21906221950116    2.07941645863487
H          -1.06588671212010    0.17314386501379    3.85899445538053
H          -0.49838203432762   -1.33835518822893    3.59634853376042
