    26
        -50.43975736  Gyration_radius:  2.71314101612 Dipole_moment: 1.603
 S          -0.06879569259218   -1.40683464556851   -2.21736498786214
O          -0.62970747508361   -2.36578344019408   -1.16988128492758
O          -1.01740247724018   -0.37182702528259   -2.50554353785978
O           1.25869755221206   -1.00317551266460   -1.88829387498597
O           0.01148569857123   -2.34975141919415   -3.47825855512012
H          -0.89429182725471   -2.47659561058183   -3.74930342807720
O          -0.13489563605125    1.44940951752877    0.51830945424942
H          -0.21979658086320    1.72499595953169    1.44711566325359
O           1.45927453499958   -1.10535618497310    2.31862616084154
H           2.04592521848656   -1.83183360179614    2.52914416518023
O           0.38925209031020    1.37937984391243    3.19712805827128
H           1.19041845177729    1.86330312529039    3.40482033327730
H           0.66120575750178    0.45756193108281    3.06644244297725
O          -0.83925329543425   -1.05507148397267    0.91089724357608
H          -0.65052880137023   -0.10583743565762    0.67660115623763
H          -0.75219887459678   -1.83109103392170   -0.25496370575632
H          -0.10466651163349   -1.29223315084143    1.51367960617368
O           2.31671008722869    0.27476308014278    0.27000132960499
H           1.88210356823953   -0.60758043859596    1.56092682304038
H           2.16060912684260   -0.23013539833039   -0.54444805621249
H           1.59227309420896    0.92309910123741    0.28083344647761
N          -2.04743330444970    2.06395035176237   -1.23626659187196
H          -0.85688753144640    1.84809029605505   -0.02596817484478
H          -3.02393450531871    1.92804627365116   -1.00536919059575
H          -1.98312532961351    2.86939747282753   -1.84620815763714
H          -1.74503733604008    1.25110943648714   -1.77265633440274
