    26
        -50.43975743  Gyration_radius:  2.71284602263 Dipole_moment: 1.607
 S          -0.29212475048645    2.41751100639966    0.98446676093914
O          -1.63157562456994    1.91394404033431    1.06407785965453
O           0.59984202431395    1.72052175477417    2.00923537584465
O           0.32185928373017    2.44025065891813   -0.30231787540331
O          -0.29901484427581    3.89171802239695    1.54302406144130
H          -0.83972719083340    3.85503602830810    2.32807157752512
O           2.73883392255357   -1.00438103394930   -0.46226413501605
H           3.64018968680547   -0.68225045376099   -0.45435914048549
O          -0.75126836330879   -1.06854242405493   -0.82864901204684
H          -0.48254902569713   -1.99479445065963   -0.95370416159491
O           1.00250752849437   -3.12209588500540   -1.23325702550085
H           1.21993450341350   -3.21014926870280   -2.16283601613299
H           1.68433678728029   -2.54617387169792   -0.85364358990876
O           0.73321403656345   -0.63999935163441    1.30120968445396
H           0.66983406078044    0.68869028677947    1.74804228720405
H           0.08361146601734   -0.75716196319086    0.55572709503181
H           1.60110885784332   -0.79713482511874    0.87530590329014
O           1.19308705249798    0.47164793265912   -1.96844423674545
H           2.23158988673690   -0.41654301593326   -1.09305500659341
H           0.38705403208613   -0.05197527723562   -1.82216993648420
H           1.00827460516377    1.30902716227454   -1.51314588121599
N          -3.10394760617617   -0.50310125958230    0.29305881240454
H          -3.40544387563482   -0.98632197431538    1.13031843161099
H          -1.68682744876177   -1.02163409023460   -0.51383197011720
H          -3.92824017734394   -0.29045956498659   -0.25489323504198
H          -2.69455883182146    0.38437177707902    0.58403334332204
