    26
        -50.46846764  Gyration_radius:  2.39931797893 Dipole_moment: 5.646
 S           0.18027409419943    1.69194244882426   -0.64603029743474
O          -0.75159605945139    1.51823474362505    0.49481251587982
O           0.54764837049442    0.37959663241305   -1.16559219262597
O          -0.36916471582998    2.54929746842699   -1.66113567139121
O           1.46922020898261    2.34634223335672   -0.06329570682038
H           1.88337152127035    1.66176224139677    0.51531363827088
O           2.41746916417186    0.51302624510659    1.61939543646135
H           2.90905271589393    0.97759119302059    2.29893533374744
O          -0.59454428886555   -2.31772619601721    0.70304854481605
H          -0.66900697922229   -3.27266284837202    0.71540117855809
O          -1.51944748391368    0.52934254423484   -2.93096939646868
H          -1.20029824883735    1.39586742455416   -2.58632832630735
H          -0.71127794153514    0.08277394674071   -3.20100499041233
O           1.78247937016480   -1.65659585549653   -0.11392496458089
H           2.32178332747704   -1.21292800429192    0.55114161132652
H           0.33768676474094   -2.11852845765543    0.38763858091254
H           1.41316915987334   -0.91562932681230   -0.64645639097781
O           0.01450132059600   -0.10780411668679    2.42940119940355
H          -0.26002166650038   -0.95377460736325    2.04952840494157
H           1.54923396036147    0.24376336267167    2.03245704490193
H          -0.35010316053023    0.57902502512959    1.82928678604346
N          -2.11086437639243   -0.41012148370002   -0.52391052269622
H          -1.93446675072957   -0.19250794867792   -1.54932422226877
H          -1.58939439119235   -1.25206247558747   -0.19923222047218
H          -1.66341901903508    0.42637591536848   -0.01812346027702
H          -3.10228488619086   -0.48460014420698   -0.32103192252744
