    26
        -50.46573361  Gyration_radius:  2.53497216144 Dipole_moment: 4.204
 S           0.28801422922563    1.97404006662699   -0.48235791802318
O           1.26479044862053    1.94676922125437    0.59469042169707
O           0.77212704328222    1.27748667125342   -1.67141656119113
O          -1.03208331751530    1.54219740127901   -0.07579552788011
O           0.12606259162173    3.49762181449161   -0.89791336718086
H           1.01287934641869    3.78743160077072   -1.08957703808080
O          -0.84068200216501   -1.20049070365557    2.54430854760037
H          -1.79010049725932   -1.29831677391023    2.45234916102938
O          -1.06713752077010   -2.39876793122386   -1.59877712332817
H          -0.77723359853538   -2.81446125804040   -2.41195740840322
O           2.31093727922804   -0.29988399048492   -0.25928803702378
H           2.22002551068342    0.45413819343672    0.35292151901961
H           1.91190636023168    0.08154275826831   -1.06537709773527
O          -0.56433179511357    1.40016001034453    2.50773849330552
H          -0.98725996152486    1.52179823117760    1.63444925647672
H          -0.68583416071523   -0.21919878710327    2.63323684702467
H           0.34499532320826    1.67330983360949    2.32791425778364
O          -1.51200878578410    0.08792606647904   -2.26500196147812
H          -0.61583557371888    0.46960474604197   -2.33327747793595
H          -1.31903359079880   -1.46570990964474   -1.85137391140824
H          -1.85942675495589    0.55280813447858   -1.48974606516165
N           0.56387398381034   -2.12705497863262    0.49165743798888
H          -0.08158668760282   -2.27854907176683   -0.32873063098501
H           1.00991874689980   -2.99980697333215    0.75440062741432
H           1.30351513893045   -1.40865270593974    0.21572749956842
H           0.00350825429567   -1.75594168578067    1.31119607690346
