    26
        -50.46564547  Gyration_radius:  2.53834390458 Dipole_moment: 3.629
 S           1.95913955687324   -0.51093310645459   -0.35138290535844
O           1.56067566557721   -1.87279514117261   -0.03532328527661
O           1.70205488045240   -0.16143207729617   -1.73896213829409
O           1.42406416845829    0.46446343065006    0.58412268468066
O           3.53487774561024   -0.44487315727009   -0.15456580769872
H           3.88524906048060   -1.08277699419205   -0.76949989513238
O          -1.87888949676057   -0.68659226321058    2.30148178882171
H          -1.99241450992841   -0.02311853606224    2.98352645230378
O          -1.61390237660108    2.45323817566643   -0.80934350121237
H          -1.72075841328465    3.13659882916162   -0.14613175737849
O          -0.50640916054572   -1.58461402836044   -1.63522178429510
H           0.14545750840805   -0.98708332677093   -2.04643120750941
H           0.05620133298612   -2.05020313944613   -0.98894855331939
O           0.66937363894753   -1.24917994843424    2.43452164939137
H           0.99526732831753   -0.45423355825883    1.96831167720206
H          -0.93364508735294   -0.99498407530363    2.38879502521460
H           0.92961526264868   -1.95431562884319    1.82596393224825
O           0.97311623544426    2.37475554513807   -1.17006941467679
H           1.19288111911738    1.88073195007188   -0.35573448402915
H           1.23731537493952    1.74817901558166   -1.85765022416903
H          -0.64360178682015    2.46239821379081   -1.04267710378172
N          -2.20741931337713   -0.08962561595501   -0.27504862009598
H          -1.98468523483474    0.92437872926717   -0.46574161900862
H          -1.53480565230664   -0.70082374461541   -0.83350234121431
H          -2.08927321301234   -0.30406154876847    0.75175062673071
H          -3.15948462343440   -0.29309798891584   -0.56223922414637
