    26
        -50.44781905  Gyration_radius:  2.5018188773 Dipole_moment: 4.220
 S          -0.68809553587517    0.07895891654984    1.85884460566900
O          -0.36963148907904    1.18887632462642    2.71783761941297
O          -1.42886983529266    0.45836973876341    0.66838001607681
O           0.47029735534744   -0.75230634764695    1.52265638481719
O          -1.63416940989075   -0.88609295299066    2.69619109800374
H          -2.18771401458104   -0.28330580832204    3.18250934450824
O           1.02073776340101    0.33311472506863   -2.10958997238258
H           1.87907556853667    0.44739135385188   -2.51978144346881
O          -1.41430975019471   -2.62214937887780   -1.56039728695278
H          -1.43948844309260   -3.08300075046321   -2.40056196242334
O           2.25385800610743    1.32038011842618    2.14193170481333
H           2.36152215825547    0.36803519670580    2.06924849335062
H           1.37301391651866    1.42660911612615    2.54448037478297
O           0.81527683970429   -1.76166890467155   -0.70125127777461
H          -0.06274737891143   -2.21159096563051   -0.99416470474114
H           0.93115310302205   -0.92351226485550   -1.30590218233050
H           0.65329519894376   -1.37504652630220    0.27441400627938
O          -1.82611278317767   -0.08144117773904   -1.91583452296864
H          -1.83698825785968    0.18123837290270   -0.97438177653828
H          -0.98195121792841    0.23913456041909   -2.25723660383446
H          -1.75064436508002   -1.69524342152096   -1.72512820101956
N           0.78661027347649    2.00351035573706   -0.20002250569937
H           1.50759942773723    1.87805672460423    0.51638483498033
H          -0.08730488816054    1.68870767411923    0.21799070339752
H           0.70613061917995    2.99455246394362   -0.38898743572725
H           0.94945713889384    1.06842286717714   -1.35762930022998
