    26
        -50.44483764  Gyration_radius:  2.51297682537 Dipole_moment: 4.675
 S          -0.09820633889492    1.67304512539300    1.38375516608020
O          -1.29865276753184    2.25898851345295    0.84078635385485
O          -0.16077089873481    0.23463661661653    1.54788628081701
O           1.09790112194011    2.07485524941079    0.62914480376882
O           0.09339134032611    2.28022784477489    2.83165343929848
H          -0.08100396660077    3.20036930682918    2.66556588199554
O           3.14341738885145   -1.15382518405821   -0.33108200738661
H           3.56434581313901   -1.79896005198321   -0.90116472744752
O          -0.17732285393309   -0.58907951788855   -2.03913278845790
H          -0.35387503034715   -0.54577581984892   -2.97929985705977
O          -2.21017404148903   -1.54801841454490    1.41254886653355
H          -1.57320229060444   -0.85550678475992    1.66179365535384
H          -1.69427325888626   -2.35564535593439    1.35323134649048
O           1.81923844962120    0.78885211906202   -1.33459500558303
H           2.46100324601581    0.09062622659971   -0.95198178247601
H           0.97972020490550    0.25749501275648   -1.64698198784613
H           1.51378678497001    1.38322203516516   -0.49173461727738
O           0.72100124070479   -1.93787460630638    0.25549110625266
H           0.44860727212930   -1.20424882637813    0.84176149158612
H           0.28980015674145   -1.74890914335984   -0.59008100344893
H           2.30951035904504   -1.57379992224693    0.01742020668300
N          -2.23039448592634    0.23917007911586   -0.82967258105833
H          -3.04860086502421    0.48712592301764   -1.37090903917403
H          -2.49338338226345   -0.48597069751017   -0.15948994556460
H          -1.06976119619960   -0.22440501121990   -1.54209914158319
H          -1.95210198194268    1.05340530384676   -0.27281412434988
