    26
        -50.44868428  Gyration_radius:  2.55694207089 Dipole_moment: 2.088
 S          -2.29793633649932   -0.16029351298629    0.37556362004313
O          -2.66733156083759   -1.08034149678598   -0.68200939535872
O          -1.49116666113562   -0.82676810641237    1.40464043797151
O          -1.67156565817263    1.05714957992859   -0.08804048953136
O          -3.64597377047968    0.26375308425465    1.08554930496074
H          -4.15717815183124   -0.53674117209558    1.02649032125208
O          -0.47729629619993   -1.96155712828869   -1.75646629359756
H          -1.41081413171314   -1.75639190544255   -1.49131673268970
O           1.99670797615159   -0.04962536700082    0.50320261229645
H           2.70076281809184    0.48275765105276    0.10621294488032
O           3.07953994375436    1.63512462232239   -1.42129974016264
H           2.18973864134125    1.58523736855356   -1.79795251741487
H           3.69272814647933    1.52319931717293   -2.14895506265964
O           0.44015948222263   -2.13520964011110    0.52482950587132
H          -0.36343934351953   -1.65917255373432    0.98766990678873
H           0.09170796923786   -2.18135919072455   -0.53717676109771
H           1.18256827688620   -1.47064983265829    0.55410529887525
O           0.42003418948863    0.50460447875176   -1.65702502605612
H          -0.38695649898680    0.86626080001509   -1.24278202091894
H           1.00547165176325    0.28932429373277   -0.90112723596898
H          -0.10042708816411   -1.07882482880101   -2.00522549589394
N           0.33194852027883    1.42512903612329    1.90668360371535
H           1.47600492425329    0.55718916963833    1.11146073601095
H          -0.43138780630774    1.44564674508478    1.22933903471471
H          -0.00739350118761    0.88831780070751    2.69549486418032
H           0.50149424503684    2.37324076775680    2.21813459993786
