    26
        -50.44771899  Gyration_radius:  2.47430220761 Dipole_moment: 3.684
 S          -1.78886564598725    1.15207987045748    0.68084813722371
O          -0.52322246873493    1.46075554844240    1.35995621741650
O          -1.93937936416503    1.91497828180446   -0.53908751296601
O          -1.96675692121078   -0.27436363880193    0.52198278335965
O          -2.93222765690047    1.64506260815631    1.65924563586566
H          -3.01883086563209    2.56014909874521    1.41254968322909
O           1.60210203749923   -1.41195485443836    0.40644329343705
H           2.44585358651964   -1.80966999213677    0.62251875455676
O          -0.02691989798826    1.10595402264108   -2.13514911957548
H          -0.79952525000468    1.54551948719588   -1.71092945060881
O           2.33306587071132   -0.60126360406603   -2.37917176502048
H           2.08349310219843    0.18835972462017   -2.86520418945983
H           1.64653316636263   -1.25078527052691   -2.55033645873662
O          -0.50046414320776   -1.39506615957850   -1.44031078432585
H           0.26127603497184   -1.63371522629275   -0.89019079732807
H          -1.19201487054253   -1.13160280108429   -0.80474928536377
H          -0.25272684393677    0.14136367472132   -2.10607323337764
O           1.44309468669785    1.10053512111466   -0.12519957449770
H           0.68357261968217    1.31443949088170    0.55639010217983
H           1.65338407745957    0.11089703386308   -0.00153189044919
H           0.93759810551663    1.16350244073103   -1.06876240530018
N          -0.07142658107207   -1.20573472908633    2.39160362969173
H           1.01659554795263   -1.41140929069358    1.23528736405729
H          -0.34826996244856   -1.93589639224336    3.03572651425993
H           0.13262602742321   -0.36909376633733    2.92532613985993
H          -0.87856435117357   -0.97304066810057    1.80881822186153
