    26
        -50.46126939  Gyration_radius:  2.53174987634 Dipole_moment: 6.049
 S          -0.14528035196687    1.91174819875406    1.25489191346573
O          -0.95294369081886    0.88430774849831    1.89590971261961
O           1.26655684483789    1.82013819897388    1.55325788214602
O          -0.40405972164855    1.99663564767137   -0.17800828274015
O          -0.64719415647723    3.28661681787740    1.87738533207875
H           0.02040238306608    3.90502284055460    1.59731289195517
O           1.28091924592338   -1.75405712759610    0.38445064614950
H           1.97248716519005   -2.41308242042996    0.45569948882416
O           0.05901009523360   -0.82405762652195   -3.23203475904218
H           0.68922117876707   -1.21612278037708   -3.83727652373507
O          -2.39588027907817    0.28834005166959   -0.16392295422154
H          -1.91037449632255    1.02436700318322   -0.57972092392515
H          -2.09912051769953    0.39226503699182    0.76801668254180
O           1.39986320777879    0.48156551026894   -1.40757562120586
H           0.58240624961476   -0.20635225540271   -2.64975638071054
H           0.81678695986477    1.14699176244970   -0.98782482341199
H           1.57200111084385   -0.17985159449795   -0.72322543888961
O           1.14340623291975   -0.53938024623633    2.65523906523591
H           1.51892895145882    0.32204261893401    2.37759952317901
H           0.20109887244476   -0.31368504560128    2.71968407314731
H           1.22947805078345   -1.31242529925409    1.28892153558337
N          -1.04645264784592   -1.76787811052271   -1.01240909084851
H          -0.20495892246591   -1.85039330692889   -0.40391166013545
H          -1.65438370540079   -0.94089688924039   -0.65594378787486
H          -0.70972971955964   -1.51338783279628   -1.97742535936348
H          -1.58218831872509   -2.62847088012959   -1.01933315056006
