    26
        -50.45450925  Gyration_radius:  2.45196325391 Dipole_moment: 5.295
 S           1.92167053891573   -0.51147377306015   -0.63998817751803
O           1.96819856802277    0.07578209358552    0.78073995742665
O           0.57803571447761   -0.37353973709007   -1.17184397143392
O           2.95073391811918    0.09575724321789   -1.40363553724741
O           2.19087270011562   -2.01885299437378   -0.44007418490062
H           1.32053303989684   -2.51403444463181   -0.53020750606920
O          -1.90935313438997   -1.80510993370337    0.87247492155264
H          -2.75726732743396   -2.15108858258392    1.15322087139377
O          -1.09292978190553    2.22924796131719    0.81712103311646
H          -1.23384987068016    3.04047506709333    1.30684455730844
O          -0.15342615846391   -3.01976411503004   -0.81251482004940
H          -0.75013755573337   -2.72775510840923   -0.09424443961813
H          -0.33286040512912   -2.42457749570352   -1.54792102440294
O          -2.03675534261432    0.18434655970643   -0.80382621528109
H          -1.12859984792928    0.03263075305986   -1.11928922500871
H          -2.09111674677391   -1.07809128713879    0.21013607014038
H          -1.97730489698290    1.00162273368873   -0.28656348291573
O          -0.20945217997532   -0.02210610280104    2.05404331848114
H          -0.77740021857727   -0.75336636980492    1.74946949927496
H           1.09970061112840   -0.02846668591780    1.32226110070600
H          -0.60979427049713    0.80265648869522    1.70761738669537
N           1.09370361084055    2.45697754372936   -0.69197693449201
H           1.00638900972777    1.60582393269114   -1.23837859976133
H           1.30449306538922    3.21222604433544   -1.33379797063202
H          -0.28325708052796    2.37382878459107    0.24654731528607
H           1.90917404097960    2.31685142453863   -0.10621393205138
