    26
        -50.46126931  Gyration_radius:  2.53119900316 Dipole_moment: 6.041
 S           1.56496459705478    0.70289590956892   -1.51682002539451
O           1.10176949816243    1.86299450694340   -0.76956246757514
O           2.57061476509340   -0.07546539399584   -0.82831456171029
O           0.45844384222523   -0.11926780809449   -1.99286696637435
O           2.26711568476140    1.29538600292257   -2.81498369540668
H           2.72611961566911    0.54231559412895   -3.17375027469247
O          -2.53172688962047   -2.16866215250740    0.09489782484240
H          -2.73413369144083   -2.97880785689977    0.56380189626918
O           0.30638785592573   -0.38968862712292    2.14918246903071
H           0.49678337989078   -0.73689763069017    3.02145783776696
O          -1.42329844660659    1.53605472235667   -1.21108660921594
H          -1.12102670521957    0.80160214184948   -1.77606126743029
H          -0.55936498577079    1.95609114113853   -0.99901516219114
O           2.29014948991628    1.11366119201520    1.47364430495731
H           1.08094934745076    0.21276203938853    1.91947349206551
H           2.67253307504060    0.53475452133007    0.78126938149596
H           1.86689313798525    1.79508975052446    0.92678903541802
O           0.06238365562127   -2.03127343470194   -0.19055195683554
H           0.27833836752658   -1.42248726059983   -0.92652761625316
H           0.36598155744095   -1.58494619546347    0.61195581942423
H          -1.56396379757693   -2.21996551634916   -0.14056342157240
N          -2.04972704437505    0.28450742867416    0.98217407783098
H          -2.40949646919356   -0.65899792495913    0.68230177228985
H          -1.16258757250932    0.12484888409556    1.50428610925583
H          -1.82605964605876    0.84446271619427    0.07835515954887
H          -2.72804265145384    0.77903324020289    1.55051482444881
