    26
        -50.43876726  Gyration_radius:  2.56311094456 Dipole_moment: 1.935
 S           0.96431492291576    1.44026682197145   -1.60226897103040
O          -0.16128747860899    1.90470844626641   -0.76503104759720
O           2.22817082409439    1.64020491930717   -0.93313919632925
O           0.73384657376405    0.10645123167851   -2.09600470157809
O           0.96157625907913    2.40889128977918   -2.85810000518511
H           1.40534307153506    3.17623469967846   -2.51102886240458
O          -2.76971933489173    0.55784475935816    0.28801447932167
H          -2.78126597690051    1.32464006663263   -0.28962888037435
O           0.55854148244275   -1.29062870070107    1.35189954938302
H           0.75892060120845   -1.70306575475404    2.19307162903930
O          -2.23192846750119   -1.43362669784370    2.24363229253695
H          -2.16906360046337   -2.11344405498687    1.56947859214235
H          -2.90205878052450   -0.81702758147743    1.93489887963370
O          -0.55170479931121    1.00421208029966    1.47605735350793
H          -0.25519791083897    1.45633606868564    0.53997877456943
H          -1.53128684003147    0.81506219337225    1.25330013299897
H          -0.10336510519757    0.08002424918236    1.51411086544433
O          -1.19414221796691   -1.21253437945560   -0.82498568636864
H          -0.57022647575907   -0.74925191519151   -1.42274463258291
H          -0.64480937358077   -1.49994261735313   -0.08133495235556
H          -2.29947691991160   -0.15420687352321   -0.23059866747373
N           2.61306943500558   -1.00585584547134   -0.17683649941244
H           1.42439422704304   -1.20692079505489    0.80668053945277
H           3.56058548089096   -1.29157964336206    0.03753529289707
H           2.34124711388903   -1.43758577969580   -1.05293332272633
H           2.61552327961550    0.00079383266898   -0.36402292551245
