    26
        -50.43876713  Gyration_radius:  2.56301259606 Dipole_moment: 1.943
 S          -2.08351928139134    0.77346192322037    0.79555863127134
O          -1.38650121902367    1.49340985769898   -0.29033653295024
O          -2.89334109334053   -0.30144003072612    0.27206849301725
O          -1.17085258762353    0.40027471110978    1.84621419535766
O          -3.08827841367612    1.83729177501421    1.40734778798833
H          -3.80847898614740    1.80160614610099    0.78589089882458
O           0.87074796841197   -1.68329107886829   -0.47002590880721
H           1.24785400172407   -2.40633636721301   -0.97275171666893
O           1.60198146602659    2.18444144463922   -0.85123948164730
H           0.92858414598729    2.85772607614143   -0.72859892679398
O           3.12699067798551   -0.12151718761807   -1.50790266127657
H           3.34643368035362   -0.26657301236181   -0.58519739261573
H           3.08635672007785    0.83234294216430   -1.62236298926674
O           0.12619096770040    0.34245930273158   -1.83138933178777
H           0.45096349716038   -0.51073270491953   -1.35806569347962
H          -0.64745615451598    0.76885598303837   -1.20939243240807
H           0.85939398945691    1.03460977175665   -1.66374812313802
O           1.39630620519145    0.52479893969788    1.16401162751531
H           1.42570072950791   -0.33952164843705    0.72887371704352
H           1.61121597208935    1.66447837659858    0.00104474061603
H           0.48776171450046    0.58210732550015    1.52804219298211
N          -1.16332727364206   -2.36545372922918    0.95621672845658
H          -1.55836440535947   -3.29533735229611    1.02436283461143
H           0.06553393640943   -2.03210422980338    0.06356598569967
H          -1.89434586182634   -1.72901735979991    0.62607539152450
H          -0.93755038603680   -2.04653986413789    1.89173795593241
