    26
        -50.45634930  Gyration_radius:  2.6656904427 Dipole_moment: 5.733
 S          -2.69147646310951   -0.21536859089237   -0.22599110224884
O          -2.77743154257275   -1.14959099691069    0.87604210320109
O          -2.03020224053244    1.02908956861608    0.09179393247787
O          -2.11909294047863   -0.83231274719990   -1.42921087592783
O          -4.19695437448072    0.14748771047665   -0.60206330679262
H          -4.64582378214026   -0.67550838167870   -0.43503521705010
O           1.30506598713922    1.48500283375265    1.70522391382816
H           1.38078605527163    1.79047610626160    2.60950454698724
O           1.50357135514502   -1.76995736022985   -0.18424191060784
H           1.43776622014437   -2.72543166148514   -0.20676395635107
O           0.17923242387431    2.22570368330923   -0.67780371014776
H          -0.74419110674475    2.00809562672240   -0.42538652667028
H           0.66610150648948    2.14575298443428    0.15982937496785
O           3.35687805373376   -0.11579090122101    0.96667324874874
H           3.90570118538325    0.21965446782866    0.25626154820540
H           2.09029425266835    0.92452024716991    1.52842690947057
H           2.80062760346502   -0.82102894724171    0.58577743961808
O          -0.23325707006312   -0.90367228930049    1.49774359410278
H          -0.08079063783587    0.04743895203344    1.59490343564579
H          -1.19244015426274   -1.02417532610049    1.32557213538769
H           0.81706033486284   -1.47162574947292    0.49504936581843
N           0.28079422329318   -0.06542961793298   -1.92604736670971
H           0.35131819130247    0.90986337271527   -1.48032554783297
H           0.50455662625662   -0.04448456799731   -2.91408211320982
H           0.87535278660869   -0.73975022250587   -1.40908689195388
H          -0.74344649341535   -0.37895822313859   -1.77676302295846
