    26
        -50.45592074  Gyration_radius:  2.62467247219 Dipole_moment: 4.124
 S          -0.09843306644088   -2.56498657520159   -0.72437919141937
O          -0.19965007347438   -2.11715797660593   -2.10264682681284
O           1.30245822209412   -2.68386249831482   -0.29829890536767
O          -0.86944875273224   -1.76350987621770    0.19321058670595
O          -0.69496929507725   -4.03666117368666   -0.67949951950021
H          -0.23039865933493   -4.48103884466741   -1.38307867427037
O           1.06448207957136    1.26068279594567    1.94042471999455
H           1.34832432778209    1.40198556376858    2.84376550490136
O          -2.16864431270809    1.74809999403060   -0.08399196159910
H          -2.91836984935133    2.23398849803520   -0.42782979003451
O          -0.20248108042098    0.45927200374775   -1.69144874396276
H          -0.99743547302513    0.63520135481162   -1.16060482520145
H          -0.29910111301336   -0.47302796809896   -2.00241126942083
O           0.20799092605360    2.97919953458708   -0.07001761517082
H           0.60059572348572    2.49854757542121    0.67936503473864
H           0.45857212556019    2.50487869677522   -0.86882199369584
H          -1.41353223443076    2.37673364258493   -0.03102103582289
O          -1.24827734371075    0.15236912727212    1.97537810559701
H          -1.79591606098244    0.70838453087493    1.39864033361698
H          -1.13417353039014   -0.67086066714650    1.46024643471149
H           0.14728197313232    0.82757738377299    2.00266568783799
N           1.85825554705637   -0.18604656066918   -0.18450329719302
H           1.06906622182555    0.15497198512962   -0.81814369113509
H           2.76841714252955    0.03585052767498   -0.57379939895233
H           1.72673110792463    0.25616736299072    0.74810894406846
H           1.71865545797418   -1.25675843709282   -0.14130861261931
