    26
        -50.45592072  Gyration_radius:  2.62465257839 Dipole_moment: 4.126
 S          -1.77700928048087    0.71433290515870   -1.85615324659210
O          -2.77537068710871    0.81805391905337   -0.78340022701995
O          -1.03455741696108    1.95307857768534   -2.01416345344725
O          -0.92995620146045   -0.44019535130016   -1.68783256307237
O          -2.59944136564505    0.50262386646721   -3.19871821456332
H          -3.04465284633303    1.33727179839435   -3.31473445504800
O           2.63112780918074   -0.74546800055363   -0.53801062815406
H           3.52427000201102   -0.70679459481218   -0.88029573446454
O          -0.09236687900264   -1.46759418456411    2.07951124116032
H          -0.36302953042128   -2.21390625250498    2.61462905994967
O           0.88619953635673    1.49354160790028   -0.30927957297217
H           1.35028716359342    0.70937335995963   -0.64757736445460
H           0.28646670587790    1.77623035617754   -1.04112506657025
O           0.35425296865530   -2.29356843178502   -0.30716949033089
H           0.07817530050435   -1.84051498806381    1.14964539592318
H          -0.23075505897320   -1.74846123851999   -0.87002127033152
H           1.24324838025275   -1.96660161641408   -0.51805529919040
O           2.23196721232364    0.05455265977318    1.98480520019552
H           1.44880503834415   -0.49123716479967    2.17345582617998
H           2.67863605500444   -0.54333136630742    0.42382588245974
H           1.91105239613613    0.90328404326392    1.66458331352462
N          -1.16466324701143    0.84063360866953    1.20804303662875
H          -0.96914510016031   -0.08954726115467    1.63141350620103
H          -1.93382554836661    0.78042620255262    0.45122858752194
H          -1.41765214422854    1.52295884467160    1.91485583464467
H          -0.29206327231560    1.14085871109035    0.67053972203546
