    26
        -50.45592081  Gyration_radius:  2.62487324245 Dipole_moment: 4.127
 S           1.25101141905789    1.92819319065386    1.35369366009505
O           0.33547403549059    2.87700839255514    0.74367273803024
O           0.69034268114512    1.35389619848464    2.58417679589265
O           1.70116152067401    0.90473069398522    0.44342822284900
O           2.53092037327392    2.75557891254793    1.80187431969879
H           2.15880090023555    3.47919084089325    2.29812683582218
O          -0.42213983004020   -2.47747388140985    0.41429135659367
H          -0.21884340744171   -3.36291917819668    0.71630950070310
O           0.20964481411671   -0.38753663827943   -2.75172999571160
H           0.19406537432254   -0.19841982732175   -3.69001425734453
O          -1.02063680357731    1.22604122125483   -0.75365305215064
H          -0.37419221612906    0.84856695609538   -1.37364281682469
H          -0.55305138651971    1.97861230453476   -0.31738291469011
O          -1.97498222524843   -1.49452552780893   -1.67150392490069
H          -0.60409981724210   -0.90041433554131   -2.54447983709235
H          -1.53781003333493   -1.95660609229999   -0.93513971159641
H          -2.24691531305657   -0.63341828607971   -1.33929286744979
O           1.67408005974415   -1.48723594259333   -0.68281957189773
H           0.43002838074830   -2.12872513529757   -0.01569362802091
H           1.37370271979566   -1.17732265227138   -1.55194210730173
H           1.84280665438375   -0.66015758350308   -0.18931590999045
N          -1.10926292924763   -0.11788660331003    1.50907685012877
H          -1.16152862605806    0.39652518578820    0.57465963901793
H          -0.82210787099245   -1.09860121959713    1.31310409388088
H          -0.35068984820996    0.41658081139322    2.06304767997157
H          -1.99577861587819   -0.08368181470115    2.00114890228939
