    26
        -50.44612508  Gyration_radius:  2.4862152967 Dipole_moment: 2.149
 S           1.86076488788764    0.54860250965787    1.10933174348591
O           1.34811991033073    1.41403724788545    2.14143303596711
O           1.99845736261150   -0.84564806477313    1.55979160112210
O           1.14484783757348    0.60813430369687   -0.14343929411317
O           3.34077903037867    1.04600841877860    0.79957253256882
H           3.72244001874077    1.13783603592578    1.66741366632571
O           0.63230815534902   -1.54135618264328   -2.38337866235853
H           0.43489649738630   -2.28226567844499   -2.95954173072748
O          -1.72318862572126   -1.24860946981174    0.65254552589652
H          -2.16946567898035   -1.73860807851067    1.34430363618986
O          -0.67425812068505    2.13395231750835   -1.24427319708175
H          -0.25160911475103    2.64712997515450   -1.93449642866109
H           0.04800672362394    1.61969502733820   -0.81269941164578
O          -1.63528232469186   -0.28512878943298   -2.01571334093835
H          -0.19591139764300   -0.98497924653093   -2.34252296597122
H          -1.89123536216456   -0.66243611887807   -1.16350881026650
H          -1.39581615320566    0.64333069278173   -1.81908365479816
O           0.59131002453981   -2.19388101248607    0.07224131340917
H          -0.33710583229195   -1.84081438612645    0.31340867023344
H           0.74220234900889   -1.89783167003448   -0.90650743280859
H           1.26450448571945   -1.63756406286548    0.70347636390356
N          -1.38422498857271    1.14761502950074    1.52479533268616
H          -1.49620870771614    1.76151584657915    0.72445956062832
H          -0.41232308205372    1.24348310561601    1.82972623491515
H          -1.97928807180396    1.49342887906595    2.26746910605036
H          -1.58271983288846   -0.28564665895475    1.01519659600238
