    26
        -50.46254247  Gyration_radius:  2.3982046327 Dipole_moment: 9.371
 S          -0.10304628590475    1.91232037537605   -0.18137563279901
O           1.21809628903630    1.31413598029338    0.15228349892377
O          -1.15645546591316    0.92798760775878    0.05572787969595
O          -0.30553626430503    3.17327121034590    0.44562953262583
O          -0.06239212320683    2.10588458511136   -1.74624431988753
H          -0.16046174331082    1.21252733419622   -2.12412107704508
O           0.29148863810616   -2.24279827788245    0.99759322729680
H           0.48036548967883   -2.98506372441606    1.57291912350281
O          -0.25959911488286   -0.44660610713186   -2.74115609829267
H          -0.71353783459370   -0.43087285088344   -3.58487094352159
O          -1.35742069968981    1.65186094329221    2.61154625566040
H          -1.02628884724367    2.54635782803925    2.48198227505636
H          -1.55884029768803    1.35210790179186    1.70853756098858
O          -1.69226568457482   -1.46513238812390   -0.84467016072186
H          -1.72416466907034   -0.57148982053661   -0.44175777774927
H          -0.88714055280534   -0.88494771898653   -2.08674283192379
H          -1.16717088177760   -1.98041879269086   -0.21539170863740
O           0.68504033553904   -0.09226071884367    2.37696106311226
H           1.02236198421499    0.49546021461273    1.67525535231052
H          -0.09031363916624    0.39366885498644    2.72517299487609
H           0.34658862672292   -1.42249520274172    1.58378724592564
N           1.66804148364740   -0.94215218032544   -0.90302264323088
H           1.21743722314617   -1.60840492473251   -0.23193206045716
H           1.15952099670594   -0.93640372513962   -1.79812449198398
H           1.52176932649882    0.06509004551627   -0.45970522543349
H           2.65392372083950   -1.14162643888820   -1.02828102829188
