    26
        -50.46254248  Gyration_radius:  2.39820505217 Dipole_moment: 9.371
 S          -1.21831832014617    1.48711935148395    0.06718388429081
O          -1.71923394820763    0.20017835534252   -0.48729042792898
O           0.24162271184928    1.45931212953638    0.11813508695069
O          -1.77609831453766    2.61883239684801   -0.59027418177331
O          -1.68514491408221    1.47369747742197    1.57376594148640
H          -1.10146866030263    0.83565063735358    2.02401445668416
O          -0.06083670232902   -0.39644701451241    2.76043014636843
H           0.09159057192610   -0.15828394078723    3.67596710562500
O           1.46047020830406   -1.78959576733762   -0.88014858800772
H           1.92538900254131   -2.42160640440355   -1.42970422761576
O           0.41785136905116    2.35005253108602   -2.38633612166328
H          -0.43681380370037    2.79292183357124   -2.38837848217371
H           0.58282216268576    2.18102205744804   -1.44292657858071
O           2.02605450692840   -0.06117193918233    1.27081047572902
H           1.54149526725510    0.66429569621568    0.82263100614389
H           0.81319730196994   -0.25844738787130    2.27956486814402
H           2.10782114869028   -0.73893707211964    0.58438483031813
O           0.03355128686548   -0.31754359531275   -2.45477573964423
H           0.34664295104481    0.58482546040342   -2.66974605983250
H           0.99714043734683   -1.16073139187600   -1.52001579694666
H          -0.73704232080567   -0.15704088299392   -1.87860035999198
N          -0.77187000386036   -1.87699371203196    0.60576414193088
H          -1.23997170954784   -0.98784747989119    0.13377581355435
H           0.12670291637242   -2.02474074385999    0.08805927604847
H          -0.58332921562511   -1.61490637176742    1.58330859568382
H          -1.38222389968374   -2.68361423277251    0.54040091519481
