    26
        -50.46254256  Gyration_radius:  2.39822791922 Dipole_moment: 9.374
 S           0.14392243045868    1.84187004342913   -0.53597272595780
O           0.61131711029049    0.62673168300998   -1.19905131354988
O          -0.12395921135951    1.55168714760334    0.89882944802821
O           0.97408046793342    2.98311355031998   -0.71645051563417
O          -1.28011120440432    2.12741909150859   -1.15120494960451
H          -1.71862662740775    1.25884362006975   -1.21278740284352
O           0.48954430141998   -2.16482387780398    1.08857485272785
H           0.84285915417859   -2.87357682779251    1.62754125265419
O          -2.48496252598441   -0.33981892404066   -1.22072538794963
H          -3.08964598038628   -0.38325503838435   -1.96278522704675
O           3.13497013349750    1.13950634897383   -0.51693827315071
H           2.33831205075501    0.85130159049772   -0.99453187893613
H           3.01957374116811    2.09229416796194   -0.44350837359102
O          -0.35914099045126   -1.77055309916524   -1.56795391079124
H          -0.04848727506521   -2.18314843533132   -0.74911653585972
H          -1.71452319936951   -0.94894397936557   -1.44347582629924
H           0.15003329093681   -0.93344622411359   -1.61257534496709
O           1.91597006444204   -0.06235219442855    1.56585008876963
H           1.12394930970859   -1.38855757083452    1.20889859212265
H           2.59163544197470    0.20823802917571    0.91107451883524
H           1.23043680270831    0.62623239053534    1.47943163263682
N          -1.57970646724569   -0.47371628117520    1.32923544709113
H          -0.89180632011788   -1.26354408764781    1.31641110987893
H          -2.21326757087581   -0.53703371215860    0.52029058491295
H          -2.08697718317059   -0.42926342564857    2.20569327368622
H          -0.97538975363203    0.44479600480636    1.17524686483643
