    26
        -50.46254239  Gyration_radius:  2.39818720917 Dipole_moment: 9.369
 S           0.90428664127976    1.63246718103249   -0.46664171267431
O           1.64807451663299    0.63191011348477    0.34590321213875
O          -0.52214111933662    1.31689898915207   -0.44000273853615
O           1.23095462122359    2.97208197832653   -0.11617324694190
O           1.36215137272844    1.35237245957019   -1.94978215913508
H           0.91266811833178    0.52804511598980   -2.21235720617639
O          -1.07999956078981   -1.77535878221196    1.33804918234208
H          -1.41056181272095   -2.33696453709371    2.04004889330959
O           0.13140434662108   -1.01703664593869   -2.59413676008670
H          -0.06639534721324   -1.03488293368066   -3.53153852092320
O          -0.86576026540673    2.72290300276441    1.79625942137457
H          -0.99499476766861    2.30793100496457    0.92620449241767
H          -0.11470047505783    3.30835226963948    1.65597177700677
O          -1.97770903187206   -0.74178896599898   -1.12371441791416
H          -0.75178610593820   -0.93771720269533   -2.11677985343055
H          -1.92385635739483   -1.24167541067481   -0.29640970957811
H          -1.64319948022625    0.14707475749682   -0.87871172037076
O           0.03320559895724    0.26966548183615    2.46085013490415
H          -0.45019383469256    1.12090942482714    2.47604357888174
H          -0.74784546011688   -0.93719434892356    1.79283421585061
H           0.75674900390760    0.43299477571959    1.82734656188484
N           1.12326388023970   -1.78504611897068   -0.19271752359063
H           0.88510547440189   -1.80109649357260   -1.19415824070521
H           0.27197504541215   -1.97437798670122    0.38766271840221
H           1.87988506238199   -2.42271343331614    0.02720139440721
H           1.40941992631455   -0.73775368502057    0.03874822713983
