    26
        -50.45634925  Gyration_radius:  2.6654458177 Dipole_moment: 5.735
 S           0.22731599941656   -0.45568268579792    2.66045828451788
O          -0.88157789395603   -1.29271053988621    2.18547762863464
O           1.50827300772260   -1.11198403471403    2.50853122851427
O           0.16273817834798    0.87251572425522    2.09585031333949
O           0.00681269549875   -0.29810295363415    4.23075484643772
H           0.41391655890964   -1.09044733901460    4.56727314619829
O          -0.00939769005881   -1.65120143454264   -1.64151739918972
H           0.18790299811935   -2.58820555644020   -1.67116449307691
O           1.12196867417303    1.93118370680723   -1.35089863999302
H           1.91664133589657    2.44172191232119   -1.50770781615288
O          -1.17166832595095    2.01536087949303    0.14147512619377
H          -0.41889201222057    2.16787524407218   -0.45448018151778
H          -0.74293294229986    1.79589172507399    0.99695735839656
O           0.46373323873595    0.35200627148396   -3.44691651039119
H          -0.37505132249693    0.54916489863845   -3.86648042418756
H           0.96015598740071    1.40227589478034   -2.16079678584666
H           0.33356388392549   -0.45994687825209   -2.92193324683615
O           1.67898433330956   -0.54377901158237   -0.05438957631382
H           1.53855331962908    0.41202904893973   -0.11751009447734
H           1.68117918455708   -0.77058971206031    0.90093381613359
H           0.68171021134422   -1.25289915959071   -1.02061215007409
N          -1.88431435566874   -0.49026955525945   -0.03838839262977
H          -1.32443799091896   -0.98082985331696   -0.76052927509482
H          -1.68048050296397    0.56447665195048   -0.06310662102943
H          -2.87449609683433   -0.68416425523574   -0.13155914960528
H          -1.52020048358452   -0.83368897848159    0.92027902803690
