    26
        -50.45634916  Gyration_radius:  2.66557642103 Dipole_moment: 5.740
 S          -2.58002613274540    0.61134975534363    0.55474502488239
O          -2.40494821529469    0.80444966589055   -0.89024962656690
O          -2.90493673568241   -0.75983403170662    0.88491080156366
O          -1.46888905805242    1.16029971186248    1.29704916509306
O          -3.86445884679742    1.46676141889671    0.95149703058766
H          -4.57371548920468    0.86538839689137    0.74624600124804
O           0.69266422899631   -1.51726431740260   -1.62415120915780
H           0.26455552486519   -2.18067639423580   -2.16674531742595
O           1.93171158590706   -0.31819389403139    1.72706362093576
H           2.20366928941729   -0.69729596069180    2.56312684590558
O           0.94222482372680    2.01927238582944    0.70084145425891
H           1.44228714753924    1.30809987037920    1.13584353038522
H           0.03480187363105    1.91090486387852    1.05939462488284
O           3.13823032116276   -1.49052304039714   -0.39214061551519
H           2.42349207895319   -0.79607916265088    1.02589009562902
H           2.32163469564480   -1.62783648944100   -0.90786368612290
H           3.70475538183569   -0.92092948572506   -0.91461295931605
O          -0.40967663683220   -1.56997850358105    0.69485872802489
H           0.10039831270200   -0.97391189011181    1.26212419111088
H          -1.35493113685992   -1.32493580097837    0.79795648727302
H           0.24157644395280   -1.57959772316571   -0.72173515398638
N           0.04576339349623    1.13071651332428   -1.58503534351571
H          -1.00099053998353    1.04267010942042   -1.32812620270428
H           0.52351510522535    1.53797883186168   -0.71291865013912
H           0.38803520315187    0.16830584050338   -1.76500022203241
H           0.16325737124601    1.73085934003675   -2.39296861529422
