    26
        -50.46126938  Gyration_radius:  2.53164425338 Dipole_moment: 6.043
 S          -1.06108160262764    1.93221054778575    0.62460434764286
O          -0.11419623475631    1.98371397097403   -0.48371362963150
O          -2.32979082283879    1.35753097661976    0.23617188976080
O          -0.47778905240944    1.32831106659619    1.81373159972941
O          -1.35611901998830    3.44282105677695    1.02520229404476
H          -1.90960153153412    3.74959376726463    0.31381294036386
O           1.89015437190584   -1.06038347151488   -2.53582792049888
H           1.80982221346159   -1.70537619236774   -3.23920381759124
O          -0.76487453348816   -2.06124509548030    0.18195663940510
H          -1.18094256475655   -2.91936993941426    0.09155071593916
O           1.93617344704947    1.12759783138929    0.91214487424253
H           1.17445780260327    1.19470568367506    1.53073939711055
H           1.57004148717467    1.59776174026567    0.14061636231687
O          -2.18605824911329   -0.69148099531835    1.84152048858920
H          -1.52328430160696   -0.13331347535722    2.27991405712201
H          -2.57016572260709   -0.05308195114843    1.20504006201734
H          -1.32255968216132   -1.55580250586057    0.85240861294490
O          -0.50630058439287   -0.18376471728694   -1.97044320037147
H          -0.83154135320782   -0.80168843680919   -1.30122370746237
H          -0.43861571919866    0.68154910343381   -1.51699239069890
H           0.99483349816761   -0.62902408001181   -2.45294416827060
N           1.85166492737916   -1.34327951117725    0.10185980105736
H           2.51600074709441   -1.94641451816287    0.57362264314065
H           2.02585131628437   -1.31245179313045   -0.93651742017702
H           0.87394697791109   -1.67475618804749    0.24096018176091
H           1.92997417564867   -0.32436286370245    0.47100933749994
