    26
        -50.46126939  Gyration_radius:  2.53161024905 Dipole_moment: 6.043
 S           1.67073809457632   -1.55271884865529   -0.21655769030067
O           0.87092603543723   -2.51004768784126    0.51458640400980
O           1.00072324353574   -1.07766740946881   -1.42191952488875
O           2.17156175124780   -0.45561335795276    0.59861136664939
O           2.96645629100237   -2.33262646814509   -0.70866213471792
H           2.60917089055782   -3.14077627726718   -1.06331169795977
O          -2.36996351101906    1.34992496009063   -1.92067470714866
H          -3.32741887032285    1.35345392326710   -1.94184071911488
O          -1.35748454312705    0.26827342512597    1.71766893199881
H          -2.05241055043618    0.24839086818258    2.37673233698825
O           1.62190515361046    1.44647374166932   -1.06280932751166
H           2.03877994735809    0.93990367897356   -0.33003276450667
H           1.35206969671967    0.71228455896422   -1.64456874639218
O          -1.59644825009111   -0.91993414899601   -0.88150654057620
H          -0.66944960213211   -1.09914124321369   -1.14126639854145
H          -1.56961640508775   -0.74680491745320    0.06967405763355
H          -2.10239018921929    0.42117698959441   -1.67482542093910
O           0.63833508716855   -1.05961728879720    2.66817632989579
H          -0.58244704773302   -0.23358240459084    2.12185408009657
H           0.57912864834059   -1.84213630471249    2.08129859200531
H           1.40251655916064   -0.60138880949929    2.28218370795122
N          -0.66508658949507    2.19004936682351   -0.06967970462120
H          -1.37562809860236    2.03000783496152   -0.83065059174841
H          -0.88849753798020    1.52995234459070    0.70466341672437
H           0.30742530414203    1.93070907014132   -0.47884707463049
H          -0.67289551759591    3.15145439421141    0.25170383965021
