    26
        -50.46846771  Gyration_radius:  2.3995247585 Dipole_moment: 5.640
 S           0.03426479972996    1.66937683615003    0.72432941597661
O           0.51513212550719    0.56362633424990    1.58805924889886
O          -0.61817884239331    1.10628185362664   -0.45232422637204
O          -0.81860377136946    2.57773636385236    1.44201279985279
O           1.30455542563168    2.43136770145088    0.23994109189886
H           1.78040665899748    1.80953749505853   -0.36168871611813
O          -0.36000466939156   -2.34849999069543   -0.76286966330154
H          -0.66316462751902   -3.10241481387186   -1.27015389960436
O           2.61766428978253    0.63084527463953   -1.21739986719255
H           3.54851939229093    0.85647290691803   -1.17311930030722
O          -3.00230564939317    1.19695766270384    0.85797481178450
H          -2.31339035223773    1.81325751336003    1.20012764253743
H          -2.98869559291305    1.34926909290248   -0.09178843245459
O           0.23788209379722   -0.41012257120479   -2.38753330317550
H          -0.13898474598596   -1.63581460005167   -1.43475945300030
H          -0.16230973308750    0.25061293708887   -1.77737243021182
H           1.17274594385987   -0.17386168209679   -2.39866875604246
O           2.01569961526332   -1.28704944647557    0.44884384198296
H           1.54532626295013   -0.63176612605240    1.00924261858354
H           1.32407130071793   -1.85186744571642    0.07746296613974
H           2.48836448529810   -0.15557011588495   -0.61599568992193
N          -1.52733594834191   -0.96486611329174    1.27820741336284
H          -2.24379373564837   -0.21369103780561    1.04915627359974
H          -1.26244940935315   -1.53198297408456    0.44491017716297
H          -0.65290102927025   -0.39523081391559    1.53640077752098
H          -1.83251428692060   -1.55260425084943    2.04700465839207
