    26
        -50.46126937  Gyration_radius:  2.53167490855 Dipole_moment: 6.042
 S           0.01341716501750   -2.29010214345569   -0.07342294957295
O           0.39959664127538   -1.63005974381176    1.16866704437103
O          -1.41869338067884   -2.28915775261731   -0.27301050721967
O           0.76963036396438   -1.79359961346354   -1.21383817887031
O           0.44418900337219   -3.81313388587096    0.08220646055919
H          -0.20146608977547   -4.15801145464069    0.69107131108043
O           0.24032700656888    2.38969909431324    2.31511742815129
H          -0.32925868034339    3.07392428452153    2.66802816223026
O          -1.29374621717444    1.36459680065414   -1.15356862288681
H          -1.98090823192000    1.92803226698657   -1.51136049599672
O           2.39828975170311   -0.29284202175042    0.11858961601465
H           2.01752469807889   -0.85057091567032   -0.59645564163141
H           1.94533219610629   -0.67612449015523    0.89208929078052
O          -1.27177584607359    0.40095668429834    1.54746312350354
H          -0.73536905735875   -0.41681732635857    1.49800327448580
H          -0.33912483515577    1.58895917015588    2.18235179333687
H          -1.49895382702968    0.61704785279433    0.63253114313500
O          -1.37323390493459   -0.86112546785341   -2.45348559792572
H          -1.32857049625083    0.51396292666083   -1.69317999619309
H          -0.44274998225254   -1.13894692417959   -2.45775543500337
H          -1.73009602048688   -1.42925439901308   -1.73927766708701
N           1.15010223328151    1.97494811383597   -0.14233614584305
H           1.71559626528686    1.05129575222188   -0.05492875294490
H           0.89943050074379    2.28008324624277    0.83418675400643
H           1.69254851290692    2.68161194069283   -0.62614971735807
H           0.25796224112998    1.77462801544463   -0.64153568312473
