    26
        -50.46126939  Gyration_radius:  2.53167687844 Dipole_moment: 6.048
 S          -0.43485412161192    1.04878097400157    1.99051554751538
O           0.74662286538892    1.44890186810428    1.23455351378155
O          -1.65299391821505    1.59330574085936    1.43342431951481
O          -0.47847097799431   -0.38879408116031    2.21547506842997
O          -0.27473866670310    1.69286932027070    3.43580252973183
H          -0.44927461906594    2.61575654272325    3.27972209992399
O           2.03901191904384    0.41760261878209   -2.60642793842973
H           1.94323206528703    0.61912726105728   -3.53775897115410
O          -1.46739013869163   -0.87790161497973   -1.39417347582906
H          -2.11718590797300   -1.07918090552681   -2.06865957706848
O           1.85434446354816   -0.93045046241840    1.24331504398285
H           1.92330713203071    0.03804068856125    1.15697883938690
H           1.02200546421844   -0.99741178133760    1.76307010061661
O          -2.72226759901935   -0.71241947711403    0.85264800085632
H          -1.97668799920122   -0.84400460357907   -0.52506827603386
H          -2.06151450755922   -1.02866180547986    1.49024470067729
H          -2.65199257764608    0.25623987835208    0.98235708133697
O           0.05899834394486    1.54929087948443   -1.33007320051463
H           1.37352695466904    0.98774344796551   -2.13029944516314
H          -0.64538892457815    0.88688797768703   -1.35130090219408
H           0.29562317146877    1.64978705540553   -0.38511497404682
N           1.13442232594145   -1.61516953909607   -1.16148583931850
H           1.60301033250200   -0.92884790495084   -1.80873904404060
H           0.10778841263374   -1.45151814693242   -1.22885359448077
H           1.37142717272229   -2.57209022679112   -1.39775174090635
H           1.45943931489035   -1.37788366390097   -0.15239989657308
