    26
        -50.44529061  Gyration_radius:  2.48667505624 Dipole_moment: 3.289
 S          -0.61762966393689   -2.17599464147653   -0.36706247860622
O           0.47082536592969   -1.21238448144670   -0.41712229959998
O          -1.11662750555583   -2.27014813184844    1.01640203334992
O          -1.64091427305136   -1.96418733687890   -1.34553546040886
O           0.03070683182577   -3.59387216109211   -0.67395513064271
H           0.70610576567174   -3.67648974691662   -0.00701960889381
O          -1.22280181259804    1.66890844236591    0.85687172423259
H          -2.04663260541598    2.01158691304308    1.20552897807885
O           2.18881743913641    0.13758125385890    1.83177673258235
H           2.59933097840009    0.57819789993515    2.57834467046020
O           1.22804865380346    0.62746181090067   -2.11035183028894
H           0.92766147815686   -0.10640745852733   -1.52148938530389
H           2.02602075586183    0.31260880627252   -2.53712008101347
O           1.50522307544550    2.04905792263563    0.18417267483962
H           1.47567620851481    1.64874885415904   -0.70835107353523
H           0.57855578939119    2.15959716725916    0.43667709176556
H           2.04196476290872    0.84129192213154    1.13702901430008
O          -0.29241624656826   -0.29803278055233    2.20910281212654
H           0.72508867972213   -0.24061433948476    2.05352300770258
H          -0.68693522032070    0.48381075259294    1.67949965823825
H          -0.65164651121644   -1.19550918928464    1.71638035386947
N          -1.68904857315205    0.83696927619314   -1.52451616670712
H          -0.86043557262349    1.04493663941042   -2.07260871954477
H          -2.49434687970352    1.18396381476847   -2.03036341570669
H          -1.75899589342337   -0.18332066091882   -1.48120684420186
H          -1.42559501718315    1.33223945290161   -0.10860625710322
