    26
        -50.44529060  Gyration_radius:  2.48655979444 Dipole_moment: 3.292
 S          -1.19079832350351   -1.50478958711160   -1.25224035361800
O          -1.06834384256919   -0.84923725235690    0.04045302524412
O          -1.38931919982402   -0.48306326495925   -2.29549998708672
O          -0.14810159904837   -2.44209278930034   -1.54126852697859
O          -2.55145352339898   -2.32429436890785   -1.20685911618844
H          -3.20188762631641   -1.65949726721231   -1.00009508448402
O           1.71717065779130    1.28950918922548   -0.63499834773299
H           2.34749876731023    1.58155808070293   -1.29466779223749
O          -1.70344073069223    2.07156335088104    0.98471886214791
H          -1.82818368333420    3.00459327697215    1.16887318820440
O           0.40286874882533   -1.22476756155256    2.16637785698215
H          -0.16849759961441   -1.57436026247635    2.85150162987585
H          -0.15884795885265   -1.14801844396507    1.35758513932688
O          -0.72019953046915    1.66407802666057   -1.32940753713851
H          -1.04872589409093    0.73274244805867   -1.77860608785146
H          -1.21532602600510    1.77099550520969   -0.43147274890954
H           0.26049846199485    1.51699826890279   -1.07643423933894
O           0.63834039638385    1.47192143285807    1.98079039572435
H           1.18002215822722    1.54790241492716    1.18363032982588
H          -0.87518009878806    1.79773585282791    1.47305333152412
H           0.61813531074050    0.51391909336029    2.17971348657124
N           2.06552140555444   -1.23123783610216   -0.31018638336644
H           1.91121901975107   -1.42153511731680    0.67479548527423
H           1.31630207485506   -1.70907982859730   -0.81816695411967
H           1.86629159299537    0.26500457774768   -0.51425908847017
H           2.94443705208079   -1.65654795846437   -0.57733049317837
