    26
        -50.44528994  Gyration_radius:  2.48688233592 Dipole_moment: 3.274
 S           1.67885753086541    0.48542100594534    1.48184963058495
O           0.74373163247448    0.30876318835197    2.60717778432329
O           1.26119798575390   -0.36333010794909    0.37700520872342
O           1.91206710015709    1.85130812315558    1.12197112712189
O           3.06318588854795   -0.10127709552070    1.99607455491317
H           2.84801924515304   -0.99907598882374    2.23149090246808
O          -0.77647038450869   -2.74293369186567    0.20782701315592
H          -1.48482542095326   -3.38964254616560    0.21775240625088
O          -2.05103448124598    0.88806294647068   -0.12096646284421
H          -2.71703496549375    1.50591380529086    0.18297598572260
O           1.18911592248952   -0.10542389609415   -2.22145975206875
H           1.27422763279435   -0.17155500932964   -1.23953430185186
H           1.87876930278687   -0.66355937570726   -2.58329039942661
O          -1.27379480406622   -0.73905456755317    1.69875769980872
H          -0.98096208854190   -1.57358385905728    1.16836245584743
H          -0.38530212833500   -0.29799606472102    2.13669955756187
H          -1.59279480004284   -0.07297633822354    0.99008013019086
O          -1.26154922693687   -1.21135609355848   -1.85442032052344
H          -0.40126222373655   -0.83543188260311   -2.13056300517941
H          -0.87361021110481   -2.23376074999885   -0.64716594449156
H          -1.71943485245963   -0.48344288267924   -1.41257416623327
N          -0.01992670436730    2.26264274276135   -0.87204764617917
H           0.37464221539778    1.78453176504421   -1.67575244539485
H           0.67877181683669    2.20061318533308   -0.12649774929310
H          -0.13353381030306    3.23924005765563   -1.11308420402932
H          -1.23105018116485    1.45790331982939   -0.42066805916447
