    26
        -50.44529038  Gyration_radius:  2.48602783828 Dipole_moment: 3.295
 S          -0.48758143330752    1.41837522789606    1.72997521404670
O           0.34548054954488    1.18875434700753    0.56001492658931
O          -1.90260783195803    1.44047154563914    1.31883911268059
O          -0.21077307511566    0.54822168438082    2.83256271488652
O          -0.17223895236907    2.89791631340103    2.21685752104587
H          -0.37292351372017    3.42970276238807    1.45216716701743
O          -1.01954614776267   -1.91131858855762   -0.56411833391523
H          -1.68089150474698   -2.58741452559950   -0.41185767660688
O          -0.25938332995579    1.33988805893507   -2.50908520132259
H          -0.54814443984114    1.30884450698023   -3.42325027312231
O           2.51545334735664   -0.18410954566419    0.07842138146846
H           3.23265482620219    0.44215158582573   -0.02869012072434
H           1.72131570312461    0.35157717212721    0.31900706261237
O           1.09647414163943   -0.86341419500548   -2.13271453680566
H           0.40707512504933   -1.41386608615080   -1.73713179326965
H           0.36886133774583    0.57168793233332   -2.38715641473814
H           1.72303703329716   -0.68375647008139   -1.40278794304185
O          -2.01414839509051    0.42502132266339   -0.90576665591096
H          -1.63915126484488   -0.51563873217819   -0.75831825518798
H          -1.99559258827237    0.90253763807537    0.06794345389714
H          -1.31867255793116    0.90007789414792   -1.50071254723078
N           0.48281068315070   -1.83183075757105    1.51411218572720
H           0.20025180650534   -1.01478359853170    2.06212429880128
H          -0.41821999627353   -1.88652561601818    0.28671293020725
H           1.42440054969454   -1.64474146668562    1.18450578336767
H           0.52205993788012   -2.62782838975269    2.13834598952773
