    26
        -50.44300238  Gyration_radius:  2.54144742281 Dipole_moment: 2.807
 S           2.00848536621510   -0.81750823072271   -0.94252404956838
O           0.82854680684450   -1.58560018499890   -1.38908053629577
O           1.71878411847605    0.60449024923473   -0.97356971680146
O           2.53843642635310   -1.29589279155113    0.30197753842324
O           3.10411245995905   -1.07052067065307   -2.05874284609471
H           2.75347552182406   -0.59984110955926   -2.80879945692077
O          -0.81207863493025   -0.18331389271455    2.09440648240445
H          -0.87893326230380   -0.59619151868193    2.95647392944360
O          -2.47784847100980   -0.54226737723555   -1.50501353358654
H          -2.46001079679350   -0.99127735671531   -2.35178960708225
O          -1.91049523123024    2.03774714415057    0.82627271408974
H          -1.58221280969505    1.29972398248432    1.36468730731157
H          -2.82242653702169    1.83339489741057    0.61001537022823
O          -1.06433590231864   -1.82731375629457    0.13835019046257
H          -0.16810899501219   -1.78850165666912   -0.47827308789095
H          -0.93615400592596   -1.20088839133022    0.93229275901791
H          -1.75231039924266   -1.36150287532267   -0.48955728796401
O          -0.75526999280903    1.37291510217951   -1.56661768106000
H          -1.03138626578093    1.85109476132082   -0.76276979584098
H           0.17078404513468    1.09307354355106   -1.40603129234430
H          -1.83379148590722    0.23224850039321   -1.59221141597300
N           1.54846786443986    0.76080664337226    1.85511663915129
H           1.52945959098399    1.46019836559895    1.12098760683622
H           0.15185982675212    0.21822254042946    2.03231225503682
H           2.05735682891773   -0.03248412352250    1.45545883990779
H           2.07559394407748    1.12918820584432    2.63662868511167
