    26
        -50.46846777  Gyration_radius:  2.39952895257 Dipole_moment: 5.640
 S           1.19496520941992    1.16400173111559   -0.72862132602419
O           1.75134224301038    0.11550424251216    0.16087183222997
O          -0.25795649269564    1.17551563543855   -0.60174181651633
O           1.77811381684156    2.45222144664020   -0.46809742930198
O           1.53778895888138    0.72960287099801   -2.18558752933660
H           1.00124545284919   -0.08078566550817   -2.35996517621438
O          -1.58454523737004   -1.39378952897333    1.33231821667128
H          -2.39182734670257   -1.72070830483872    1.73110399174484
O           0.20151842551925   -1.55121732183017   -2.50675960441155
H           0.68010926463741   -2.07189859175028   -3.15418355764692
O          -0.04647945280598    3.05678957794136    1.35454393387102
H          -0.80217689439029    3.08872734622382    0.76013449528821
H           0.72494118790229    3.00007256496433    0.74375384934566
O           0.74519197440085   -2.31519423351431   -0.06999585644494
H          -0.03473935563300   -2.22318100837993    0.49434545122838
H           0.40070523734937   -1.95521331084766   -1.61569716401435
H           1.25969409967732   -1.48835156423323    0.05805984431728
O          -2.08654289823282   -0.61058808852621   -1.09427919348922
H          -1.83233920858511   -1.11176705162557    0.40104394261543
H          -1.49972339933196    0.17202065078701   -0.98387222104458
H          -1.64875351603082   -1.12950070049167   -1.77908674104761
N           0.16754577994351    0.53443797432045    2.14071147818337
H           0.50744409095255    0.40524231124461    3.08802181795203
H          -0.05837238164162    1.55345542817000    1.93960703229444
H           0.92449047009314    0.30549057649161    1.41237008032267
H          -0.63164001805442   -0.10088697632906    1.93100165943280
