    26
        -50.44300252  Gyration_radius:  2.54150016134 Dipole_moment: 2.810
 S           2.13197798994935   -0.93275391047654    0.42068704874766
O           1.78283713075074   -0.96199344552689   -1.01414099074700
O           1.77703919736924    0.35263135421378    0.99417047015365
O           1.62520017798424   -2.06975904141315    1.13398347080225
O           3.71406080260999   -1.01091880721701    0.45572563079589
H           3.97464350183003   -0.16268394750326    0.10965404675057
O          -2.05947264068028   -0.82183264021749    0.40220949722805
H          -2.68536000866463   -1.52962406521401    0.56151270691343
O          -0.45454478900589    1.07788136783009   -2.70809717933588
H           0.24219891025871    1.08504185328671   -3.36648950893710
O          -2.14175885265400    1.95688799725805    0.26238320157256
H          -2.56091903993534    2.19986970301413   -0.56546715608423
H          -2.22535067239711    0.99303963061911    0.34208183324628
O          -0.56476100093016   -1.20625519213639   -1.64980601587110
H          -1.14908346526269   -1.09260281578319   -0.82226070923210
H          -0.61696251546460   -0.30369102802073   -2.16697056398880
H           0.47782154984791   -1.20113062301230   -1.33738337041073
O           0.47584390246884    2.09665109982454   -0.53212286425667
H          -0.36320093236939    2.22077211134910   -0.05076895707690
H           1.00716072630072    1.47810966963522    0.01255329471854
H          -0.06725535084651    1.53613067568189   -1.89427866252104
N          -0.44691202156771   -0.73805605470156    2.38036293390520
H          -1.42926881415018   -0.79048475204644    1.23660196637074
H          -0.72389852114967   -0.96768619961173    3.32634118366501
H           0.28956372393545   -1.38446706605223    2.08384337313315
H          -0.00959898821934    0.17692414620453    2.38567534044996
