    26
        -50.44300225  Gyration_radius:  2.54143227143 Dipole_moment: 2.811
 S           0.96247126471944    2.08830900628709    0.54986549935792
O           1.89673079088112    1.22161674032255   -0.19683681630859
O          -0.35768351696099    2.03314105476457   -0.05110322938912
O           0.99025748844351    1.84014191571263    1.96259201382351
O           1.49635105586198    3.56081898649194    0.31157529881939
H           1.31197304223337    3.70506094937775   -0.61158052655747
O          -0.44908659212694   -1.78870675704965    1.29538781441872
H          -0.32957211722455   -2.34061935349483    2.06945491676700
O           1.12863553194911   -1.39568364742613   -2.34031252210229
H           1.82227599968997   -1.00050636126021   -2.87100405581425
O          -2.08541099130107   -1.79464974012872   -0.95611047433865
H          -1.77171504976916   -2.48239503387001   -1.54667780794181
H          -1.57707489384468   -1.88346876512560   -0.13385874468875
O           1.74334339815313   -1.20028148269061    0.09562037876103
H           1.85374798344727   -0.11787758124539    0.06450823665861
H           0.89060498637087   -1.42222183235168    0.60819680970742
H           1.54040260753740   -1.40360664744484   -0.90540577353507
O          -0.75905961059345    0.33458918543116   -2.05535066258471
H          -0.59663621619354    1.00296253368794   -1.35634741212373
H           0.38785002753890   -0.70847423227270   -2.30228477249168
H          -1.45228663381079   -0.25429754828546   -1.70350260284974
N          -1.39524413413572    0.45422793286811    2.06651655889886
H          -2.02059286416805    0.54481013844080    2.85714581679584
H          -0.86189097779538   -0.88913270970479    1.63381954570250
H          -1.82328259015635    0.90253390073273    1.26386609005874
H          -0.54510798871354    0.99370935826793    2.25182644095509
