    26
        -50.44300250  Gyration_radius:  2.54157625386 Dipole_moment: 2.816
 S           1.22506926371808   -1.14801636621235   -1.66549074221592
O           2.10086468128300   -0.57995131296748   -0.62060030583807
O           0.06465080626501   -1.77337892178359   -1.05770830881777
O           0.92468389843685   -0.20552547227483   -2.70471162425255
O           2.07185418474648   -2.32068753584692   -2.31208868255884
H           2.09936651678053   -2.96960495861047   -1.61546005993840
O           1.27464444904513    0.22310028076100    2.65142044720821
H           2.12198620339598   -0.18665934979343    2.83340845561493
O          -1.03231295352420    2.00179375519400   -0.06409437761067
H          -1.17598256035562    2.88300405133887   -0.41182361857636
O          -2.17190978944898    0.39430211767958    1.90183529065498
H          -1.89743854465410    0.73076635324944    2.75714838000742
H          -1.85829928014474    1.03194295531411    1.24041139492771
O           1.42487288657360    1.49469155611775    0.48115594070397
H           0.46139356319357    1.70998252359482    0.22710992806660
H           1.38703785100533    1.08529089007976    1.43806517830055
H           1.74770127776730    0.63064825667527   -0.09651336281398
O          -0.26129187357902   -1.54024536694004    1.56970473636422
H          -0.11113391321594   -1.67710592928519    0.61036263682847
H           0.68742846859445   -0.51354604233158    2.28426745328714
H          -1.11139404078646   -1.06757279740280    1.64048387309644
N          -1.65776315193084    0.32534807469769   -1.88576778379465
H          -0.77237245644500    0.21332369749453   -2.38741547102181
H          -2.39658609753302    0.49253156487418   -2.55693625129886
H          -1.82431254261021   -0.56989736034375   -1.43944812812710
H          -1.32075683657837    1.33546533673186   -0.81731499818247
