    26
        -50.46846776  Gyration_radius:  2.3995345011 Dipole_moment: 5.639
 S          -0.08949791843327    0.30461045221223   -1.79241855160829
O           0.80216742602459   -0.79603944205616   -1.35243974523528
O          -0.50127929212109    1.07948173713751   -0.62738725637076
O           0.52574310875506    1.12058941231699   -2.80390999789555
O          -1.36300779014502   -0.37262279546683   -2.38257867878292
H          -1.82173436698281   -0.79894631206163   -1.61911947372989
O           0.47510697719575   -0.24357824578638    2.43787687319539
H           0.50710984343799   -0.06722169134831    3.37887688068215
O          -2.43410019546653   -1.64756901916214   -0.30467463898050
H          -2.92182621500174   -2.39642215305427   -0.65202628995933
O           1.61729214703786    2.74379425125207   -1.01784889641510
H           1.32831100611787    2.24085236315857   -1.81470292632389
H           0.79712965292769    3.10990009951918   -0.67321204782011
O          -0.08392884950269   -2.36097829750736    0.58146863871116
H           0.32615441216915   -1.91355843413132   -0.19081325560252
H           0.16340694035774   -1.82763769325480    1.34933154462129
H          -1.59032611633266   -2.01461139770543    0.08277945998223
O          -1.84820093667564    0.46571785327803    1.51407340981327
H          -2.38533305934646   -0.26380034894953    1.18363633999963
H          -0.43891028518671    0.04149963767972    2.13543048390178
H          -1.43351649552665    0.83648963516593    0.70191944972946
N           2.10337281480456    0.55850471706217    0.40127909905715
H           1.67884317617879   -0.09389710155348   -0.34036704174920
H           1.96377268396755    1.52415231341399   -0.02061695478442
H           1.53824274588003    0.41449882800565    1.26505683898799
H           3.08500859586654    0.35679164184703    0.56038672656884
