    26
        -50.45437230  Gyration_radius:  2.50807354506 Dipole_moment: 3.468
 S          -1.00433484206144   -1.88007811217751   -0.69449928454159
O          -1.19545812678621   -1.57930724112540   -2.11124771450783
O           0.38715094327118   -1.68749942966103   -0.30221526489568
O          -1.92330253926505   -1.19174369484283    0.17855392846663
O          -1.30937130968995   -3.42831538763926   -0.55297003933829
H          -0.98907322423128   -3.77621862375712   -1.37919879897752
O           0.17080344547059    1.78424135813468    1.82094029463429
H          -0.07988497375662    2.27805221149521    2.60246868378289
O          -0.37278305895209    0.76622476554495   -2.41900917539194
H          -0.76257101897464   -0.18725830244495   -2.45676650464744
O           2.38872103825734    1.98853790274589    0.28490807668923
H           1.63160253283672    1.93071854627394    0.90037989716547
H           2.39430879433106    2.88097014579871   -0.06456120374839
O          -1.52052657271959    1.38278341750159   -0.26882110757065
H          -0.91878609495915    1.63914053959038    0.45849869171559
H          -0.84835613573308    1.16668050180277   -1.58027262689121
H          -1.82201424619816    0.47280647048373   -0.05151431605731
O           1.85724680718925    0.11418027093213   -1.54855145939985
H           2.16936598701637    0.75691103891618   -0.87080897193756
H           1.48587488592738   -0.65180840988738   -1.05662112308633
H           0.64953478682320    0.57996271902541   -2.13143340730611
N          -0.07211589650195   -0.76456208382841    2.31877618600868
H           0.36480585601800   -1.26657789703528    3.08154562340056
H          -1.06667717179051   -0.96283723893319    2.33221299379652
H           0.12153785627091    0.79965934726030    2.06871480682734
H           0.26430228819884   -1.16466280417467    1.44149181581525
