    26
        -50.45437031  Gyration_radius:  2.50779586448 Dipole_moment: 3.510
 S          -1.03931120308347   -1.63405435862798   -1.12990630762282
O          -1.16371956975367   -0.19104516095395   -1.30440446051731
O           0.06758375959178   -2.16267920204638   -1.92328141858453
O          -1.00098667286230   -2.02138911692099    0.25874533815887
O          -2.34583923718606   -2.28155872114743   -1.74926024715239
H          -2.14778721354294   -2.29482829186310   -2.68050791077220
O           0.30041108313958    1.18945846751506    2.24164854054415
H           0.22125934888023    1.33353477527627    3.18527112707610
O           2.09223922059394   -0.87985188652813   -1.19792163952445
H           1.36971740839634   -1.50228324377505   -1.58944759198721
O           1.33982970908432    2.79687237788582    0.32963232333339
H           2.26043680280936    2.93063915174024    0.56018590648662
H           0.93906696310487    2.27938768587197    1.05554799870425
O           0.98436264221905    1.25001365820513   -1.82387371396544
H           1.74161046888593    0.09248820038307   -1.50488081197549
H           0.08770154505808    0.85712807839334   -1.73300723897473
H           1.07265298127889    1.91435458655577   -1.10222198781007
O           1.30223502082007   -1.10323168352214    1.17880236184291
H           1.04587036669137   -0.26245516822792    1.60778987880477
H           0.45705084075145   -1.55529982051072    0.96160802354392
H           1.91209731516849   -0.94962496829664   -0.17225043080415
N          -2.01570168646597    0.44082542739955    1.30441689004330
H          -0.62927648431565    0.95772915643685    1.90211290574049
H          -1.80651890886892    0.37169304902836    0.30725691517871
H          -2.15512637085023   -0.51637908244757    1.60933855257175
H          -2.88985811954750    0.94055611019262    1.40860698767082
