    26
        -50.46875455  Gyration_radius:  2.4984555747 Dipole_moment: 1.324
 S          -0.32755018569364    1.33622843563176    1.66779213616900
O           0.53110792324066    0.71449972431256    2.66373254980773
O           0.39478432240447    1.57500712346316    0.42041108047768
O          -1.57919047132290    0.64398480202875    1.45776973949191
O          -0.70679092908196    2.76360127952042    2.24680651169208
H           0.10970679245579    3.07333290732845    2.62656051734098
O          -1.12663522729900   -1.83915038186161    0.55849265503149
H          -1.44082698796202   -1.01032934415873    0.97340836985840
O           1.18002805956177   -0.60298839328277   -2.81845503400609
H           1.11316498891822    0.19394408447389   -3.34739177135442
O           2.38540832561747    0.00967434025516   -0.47997131148163
H           1.78563082231132    0.73211619116440   -0.20938518085993
H           2.07221973557074   -0.26906614308614   -1.36653907704274
O          -1.76219382965453    1.46069388083250   -1.08242204436174
H          -0.86681884115233    1.66146367304668   -0.74365733897765
H          -1.21355740269016   -1.68913417877478   -0.40073114309952
H          -2.24120967987697    1.27048183691546   -0.26276932680252
O          -1.40733615385062   -0.94879925985794   -2.02441839303255
H          -1.57256143094001   -0.00937065678166   -1.72249049899581
H           0.26912840503301   -0.83632002803135   -2.55733739972227
H          -2.15234830743072   -1.19525644964719   -2.57389215986529
N           1.33027443193045   -1.44057585535897    1.40482219353806
H           0.39598329638168   -1.78440757325322    1.03406407808347
H           1.09561627070176   -0.64353157371919    2.05582173055764
H           1.84865808305311   -2.17267332911997    1.87672012990930
H           1.88530797977271   -0.99342513203032    0.60305898764075
