    26
        -50.46875452  Gyration_radius:  2.49827549966 Dipole_moment: 1.327
 S          -1.53170673405795    1.26590367070816    0.85062932723385
O          -0.79671230268169    1.83898329936710    1.96736353216209
O          -0.79594698144655    1.41913289661179   -0.40224205756419
O          -1.96886470386626   -0.09417623615569    1.07195891850402
O          -2.85192072949922    2.13329432958175    0.70461261575048
H          -2.54772708295466    3.02535440229934    0.84067396327114
O           0.14559685783520   -1.70057927191026    1.43192630003591
H          -0.71249654119343   -1.23009799956988    1.42274571754368
O           2.03059090104538   -0.67497873068703   -2.26138617170096
H           1.63889053378841   -0.42263520861537   -3.09926721693219
O           1.88626713112882    1.42801491362876   -0.57263201486389
H           0.92394480616583    1.58336103397516   -0.64089008820071
H           2.07600479630116    0.69813163160921   -1.19959987460633
O          -1.89330112392689   -0.68767874636380   -1.53444599790300
H           0.25854730056435   -2.03611198616301    0.52370435858779
H          -2.35777158713900   -0.81188919679188   -0.69395317390518
H          -1.45225244856030    0.17308102224824   -1.38876245119900
O           0.11587312192588   -2.32961521113182   -1.24122899470878
H           1.43042661919236   -1.33484023129691   -1.86554747174053
H          -0.12712403486427   -3.19973513485964   -1.55996993854254
H          -0.66901056529532   -1.73290332780618   -1.41127214299124
N           1.47167390808371    0.53350437807539    1.83501665697738
H           1.09968873704006   -0.45598055809458    1.72981949973007
H           1.83063774051210    0.87871564300677    0.88479349151076
H           0.62538301884822    1.12908939869491    2.04298639637638
H           2.17130935306148    0.60465522963723    2.56496680719099
