    26
        -50.44612486  Gyration_radius:  2.48588672837 Dipole_moment: 2.142
 S           0.22339762125054    0.84260873174795    2.05622825848001
O          -0.60426539665920    0.74408185145321    0.87679969076412
O           0.27398341250944   -0.35155037951943    2.86156143247611
O           1.56196560701638    1.34466263254234    1.70740404318549
O          -0.43300884213359    1.97127700471190    2.96667259414970
H           0.04382540891612    1.88944706964028    3.78713549751265
O           1.45096862276675   -1.16667426060697   -1.21603337685879
H           2.29391838387905   -1.61659844779279   -1.28550053590764
O          -0.42091731432970    2.12047061697433   -1.94704107737111
H          -0.22734038876023    2.49404819545043   -2.80893426957129
O          -2.39406557005737   -0.90742979166642   -0.08064141853994
H          -1.75616363044696   -0.28656197753804    0.34361525297172
H          -3.25198951728289   -0.48596883280244   -0.01187551612588
O          -1.02436305903021   -0.39232451421447   -2.36824370942429
H          -1.60913610496564   -0.65457960203211   -1.62852817294021
H          -0.77632944320714    1.20153708012326   -2.10947750586720
H          -0.17028170811416   -0.79720930812870   -2.16623235822581
O           1.67777530508839    1.34544744516761   -0.74186776758545
H           0.80788303138874    1.74978664306970   -1.12687709455424
H           1.63727834811661    1.41340609009177    0.33243257138909
H           1.61184753545730    0.34460574129443   -0.93898064494626
N           0.19472992896291   -2.22399031434682    0.76391317849709
H           0.95342707048602   -1.59305330072510   -0.41009108760946
H          -0.78695533736934   -2.23614796301647    0.50688008876929
H           0.44724691426916   -3.15505077987948    1.07149324728696
H           0.27656912224770   -1.59423962999830    1.56618867004323
