    26
        -50.44612501  Gyration_radius:  2.48561281931 Dipole_moment: 2.149
 S           0.76570754756213    2.04178352670651   -0.47938154994831
O           0.99179919525685    1.95010429975372   -1.89972103507558
O          -0.34076391940043    1.25363641450825    0.01084783858529
O           1.98129404996052    1.76882989692856    0.30391699060355
O           0.39621881183296    3.56092614273491   -0.18005408433123
H           1.06822375787412    4.04221986826768   -0.65327389479244
O          -0.86130060877075   -0.15471502015892    2.77377005170081
H          -0.89025480521067   -0.64301655333279    3.59875553477904
O           1.05828600206606   -1.95695118169873   -0.03879030743480
H           1.84272748264549   -2.46650525616252   -0.24567881156734
O          -2.35288349262892   -0.07045147729335   -1.01173457942989
H          -1.61351925040701    0.48502455966147   -0.66936173886552
H          -3.15413604304860    0.42349301237146   -0.83180836060719
O           1.45936131483303   -0.14928362954399    1.73896378206792
H           1.32132854830362   -0.88147573750874    1.03949971425402
H           1.69995368838852    0.73074226837162    1.16577974178369
H           0.52895803026652   -0.01389545325778    2.16874354717614
O          -1.61253809455233   -1.83678452621140    0.91334989214924
H          -1.26833933945569   -0.74602595871852    2.07957147465454
H          -1.99139902110043   -1.29070906537183    0.19488219761539
H          -0.74498650874238   -2.11073418000219    0.58698811252239
N           0.33731533346805   -0.76979978399964   -2.20424467649240
H           0.63711281944058    0.20684773427021   -2.14934681526038
H          -0.67749217411790   -0.75951734847260   -2.19987733464612
H           0.64064246454896   -1.13914226005072   -3.09690913985289
H           0.77868424102127   -1.47460030177366   -0.91488656957325
