    26
        -50.45901939  Gyration_radius:  2.63385034369 Dipole_moment: 2.644
 S           0.74310404945958    2.12618073124471    1.13109772377899
O           2.16176254215095    2.01929896081206    1.35382270436750
O           0.35076187688744    1.76753225794317   -0.23686946801257
O          -0.07439307137157    1.40995822184461    2.09907466303608
O           0.37066654708203    3.66417837685658    1.30760394276329
H           1.17524764132854    4.11338677811331    1.06582570276028
O           0.21543128775982   -2.12701114947165    1.23109466596245
H           0.50445256545834   -2.28919844214784    2.13028789253734
O          -0.93132129268244   -1.08476972848586   -2.90865652346306
H          -0.59022450682843   -0.78846889197278   -3.75321091994996
O          -1.91991330197185    0.77141000814154   -1.23052926406785
H          -1.63469940187055    0.11356475894231   -1.90116956595863
H          -1.12595114215845    1.30413132833629   -1.02478544692161
O           1.83550609817840   -0.33089318961580    0.09865374459434
H           2.44739993791860    0.16209030535552    0.66257807844224
H           0.85285308987228   -1.47193605885058    0.85635234694442
H           1.24306248586423    0.38865414389522   -0.21759171020584
O           1.07868813649062   -2.35542981993142   -1.63844100030505
H           1.58230838810924   -1.63863303751098   -1.22415120125424
H           0.68683637450423   -2.84675415660915   -0.91018388872521
H          -0.20715485592742   -1.59430656691407   -2.48362316569227
N          -1.78195617243625   -0.28425424309589    1.12834395835324
H          -1.16328752035101    0.45996699411950    1.58177967488985
H          -1.21102329212490   -1.15259498520039    1.11316438643448
H          -2.64344589234679   -0.40853429968805    1.64721853623564
H          -1.96471057099504    0.07243169390300    0.12231413347037
