    26
        -50.45901547  Gyration_radius:  2.63422049954 Dipole_moment: 2.690
 S           0.21609453644628   -2.40487705928814    0.71596051645636
O           0.30932208237519   -1.11153479362134    1.40204025119412
O          -1.11246291374273   -2.96088121479816    0.73920812615869
O           0.80767520921328   -2.31846418423406   -0.61154097275856
O           1.13761051329379   -3.41017840759997    1.53806304326013
H           0.51549552118321   -3.86660972663542    2.09673097705152
O           0.16423033053698    2.99270295393867    1.23399531900781
H          -0.12709377957690    3.25210298724329    2.10879588528887
O          -0.85989294987518    0.48487818525736   -2.25666090305270
H          -1.09479707465971   -0.11880006749207   -2.96290785393993
O           1.93773578213314    0.97804333297807    1.05333524329274
H           1.36132179902494    1.76572072675302    1.16005628528643
H           1.42417760741173    0.22272598084753    1.40254036593791
O          -1.80741367228491   -0.46093037327928    0.05421607159563
H          -1.24456012264858    0.09920387771581   -1.43250120345525
H          -2.13150427613290   -1.37191772921099    0.08059802054826
H          -1.02509693333480   -0.51794965814440    0.64867574574803
O          -2.03414472185519    2.29374387384263   -0.16134908973342
H          -2.19252181963837    1.37511132595069    0.10348611607272
H          -0.64985196656651    2.79699003164136    0.72047165993381
H          -1.78050169785399    2.25297608452819   -1.08831508793100
N           1.65706716777291    0.02295026164200   -1.33570133734654
H           0.80630917079276    0.40857888026708   -1.79146287003362
H           1.40782546474927   -0.97953067295485   -1.06124448103351
H           2.45869610766339    0.04331954313893   -1.95523577329309
H           1.85628063557677    0.53262585150368   -0.40125406426010
