    26
        -50.45450913  Gyration_radius:  2.4515426769 Dipole_moment: 5.295
 S          -0.32128541155057    1.96578229136007    0.62700760684655
O           0.27976647444543    0.73526591726965    1.10890437533128
O          -1.12757137098466    1.67152384489192   -0.64913214091041
O          -1.17256919340255    2.63399773673036    1.54327846749522
O           0.82276024755963    2.88787347765627    0.15240087951754
H           1.67164603521282    2.35021615423615    0.11092134527979
O          -1.58495276243719   -2.02982454680693   -0.44065034149388
H          -2.31705916474815   -2.54906253292910   -0.77556863359203
O           2.28092690472246   -0.89317398708229   -1.29259142892494
H           2.91976766309624   -1.49573323645018   -1.67505865497219
O           2.84237785356293    1.29169204358813    0.22652451721212
H           2.73053941938943    0.59859642712951   -0.45495040867264
H           2.54167658083328    0.88924553301100    1.04809865399755
O          -0.27334218226975   -0.26071119582775   -2.03174202681603
H           0.68010842380894   -0.41283426160003   -1.89856678804949
H          -0.73808844653690   -0.98212141164179   -1.55846177009135
H          -0.73690189766771    0.93115180776268   -1.24656326778640
O           0.93083230401040   -1.85464778147677    0.71684612356328
H           1.85936431847381   -1.36253571236074   -0.51664218930519
H           0.70362513487092   -0.96679246874829    1.04446819120571
H           0.09685907781065   -2.20117259071518    0.36556909933310
N          -2.50051816537899   -0.13870366683509    1.20235356535564
H          -1.61726902979036    0.20115953687275    1.56986898252047
H          -1.97371572694464   -1.35652019065413    0.18966108786666
H          -3.12603705952464   -0.27659388392932    1.98752028285141
H          -2.87094003622909    0.62392269644689    0.64650447195483
