    26
        -50.45901578  Gyration_radius:  2.6343769426 Dipole_moment: 2.689
 S          -1.98486513153074    0.86763048058304    1.28511288251536
O          -1.12832565064014    1.40381847006636    0.22178098477724
O          -3.14843146803002    0.18448226586754    0.78107189584666
O          -1.19469065721372    0.09089979176504    2.22958964120515
O          -2.52132762540886    2.12650322838957    2.09932574373148
H          -3.38423981809304    2.27549433326779    1.72432064306109
O           0.59959796638973   -2.37982350224532    0.21996363368687
H           0.21482617738909   -3.05901613120850    0.77587555464252
O           2.06096286255474    0.92268940544430   -2.32671176614914
H           1.84305204478267    1.46880796467820   -3.08285994941331
O           1.49753885606109    1.88746251672871    0.12086355314862
H           1.77027755371877    1.60539271414454   -0.77911927511482
H           0.52128954395515    1.93953880767339    0.09942426678673
O          -1.35826792348013   -0.93249510018068   -0.87751716764020
H          -0.16204241394787   -1.88678748585884   -0.17081932628743
H          -2.25574142165013   -1.03205725913821   -0.53077875121378
H          -1.15884995614752   -0.00102342822013   -0.62972948382734
O           0.74250736137126   -1.41038275460003   -2.62280824196332
H           1.62105687693020    0.05751341571614   -2.47717936974031
H           1.12968440145610   -2.03433066440198   -2.00152733306149
H          -0.14364616555311   -1.22087452954351   -2.27951597361799
N           1.32027420037552   -0.18692495016883    1.65856163771955
H           1.30020435644706   -1.06250678819210    1.09903807161447
H           1.54459613101435    0.66542046740221    1.02938319997750
H           0.31620986685716   -0.03396450476142    1.99145973018829
H           1.95835003240298   -0.25546674321758    2.44279521914674
