    26
        -50.44612496  Gyration_radius:  2.48576543898 Dipole_moment: 2.140
 S          -1.04853790851217    0.85772175870628   -1.77554101050422
O          -0.53121213498881    2.20242545934573   -1.80668583549431
O          -0.12341708629530   -0.13677865019789   -1.28442112769755
O          -2.33317968633713    0.76381935410391   -1.06400818142196
O          -1.36526929897837    0.46279286037425   -3.28476425852148
H          -1.84372059696181    1.21980772567711   -3.60894802822251
O          -0.23064973289680    0.49765630640698    2.15534429477247
H          -0.61627104798601    1.05006603504070    2.83647431511290
O          -0.56298576118010   -2.84147833792923    0.26103112495438
H          -0.77792350961616   -3.58823339439320    0.82319702709438
O           2.43357914676198   -0.28564644363357   -0.74818049126663
H           1.48816723000792   -0.20000000164398   -1.01501996654890
H           2.84645877435444   -0.82595465506539   -1.42342947139484
O           1.46980393003753   -1.64399891602171    1.39629987795592
H           0.28794379912038   -2.45613593622099    0.61417100979396
H           1.94958906781892   -1.19007553909891    0.67397183363458
H           0.99991168101937   -0.94063467408884    1.86391053905662
O          -1.97714582538217   -0.79808078332750    0.79230750566092
H          -2.18178681074117   -0.15531831493097   -0.04750598061778
H          -1.46092899918992   -1.62584739871107    0.45066238096965
H          -1.29891997336531   -0.27893209141494    1.35394859571959
N           1.01841624703438    2.05934114018939    0.53734373408708
H           1.31278297898305    2.97340155794223    0.85841926639547
H           0.26453836400061    1.13539797233583    1.50195937462692
H           0.43602869599253    2.18987214065079   -0.29364776651951
H           1.84472846729800    1.55481283590009    0.23311122837478
