    26
        -50.46365344  Gyration_radius:  2.41766905436 Dipole_moment: 9.110
 S          -1.16576305908030    0.94812695518341    1.29636626500010
O          -1.49654795347242    0.28219557281214    0.03708603556798
O           0.30319648543024    1.18499788881703    1.35411527611936
O          -1.91897801440426    2.12222728434742    1.57277137731755
O          -1.43504728293168   -0.12214595251752    2.41950361956479
H          -0.95466799453717   -0.92099054908705    2.13474426302963
O          -0.10712550695590   -2.35440027005716    1.51705655813244
H          -0.47283789213771   -3.11570928506869    1.96994680876393
O           1.23424057690377   -0.67572493252252   -2.12788710534795
H           1.79960551344667   -0.61361859671567   -2.89836631465834
O          -0.03693778299230    3.29149225390059   -0.26622530849995
H          -0.90713301802110    3.57263971656934    0.03147653638164
H           0.23983085823686    2.64734665390544    0.40635713950690
O          -0.37372732938701    1.33307447691450   -2.10407736523760
H          -0.09299315173053    2.17649054534278   -1.69944791445217
H           0.62351406102859    0.13070976456498   -2.16776019296968
H          -0.97509284729102    0.96030530366154   -1.42650090285999
O          -0.94139342730790   -2.10163528776208   -0.91736862865600
H          -1.34932597138119   -1.24528413886427   -0.66515173442154
H          -0.24213145157710   -1.86140158155570   -1.54016798746269
H          -0.47484826797042   -2.37450354953218    0.58220453459832
N           1.78229180516422   -0.67202114379950    0.49189418596938
H           1.67398286332091   -0.71322997784205   -0.55100713122175
H           2.75052691338852   -0.54179344726623    0.76256181244212
H           1.16138443760152    0.17189414043512    0.85806737200632
H           1.37597741666734   -1.50904182387888    0.92980880138012
