    26
        -50.46365344  Gyration_radius:  2.41768041536 Dipole_moment: 9.109
 S          -0.53306320743464    1.68708131981688    0.89895004366697
O           0.19151943982590    0.65594329786757    1.69207955193904
O          -1.00559775150979    1.08954366210924   -0.34938348317096
O          -1.52867357618353    2.36010674112641    1.65924078317432
O           0.58393931452545    2.71307555638092    0.47573195115698
H           1.18989077403439    2.21147984072715   -0.09979035911484
O          -0.05056172956322   -2.32537492435641   -1.04777287351749
H          -0.18897451015481   -3.26864330178473   -1.13847793899817
O           2.21046955536671    1.24812389543698   -1.18833106160654
H           2.71584330691556    1.86424364255167   -1.72072027981701
O          -2.17928873139995   -0.32830575343808    2.45965040894136
H          -2.68410033562144    0.49006630291504    2.47860616619730
H          -1.25862239711271   -0.02942861128273    2.37631764441194
O           0.24434272660736    0.15344918145834   -2.46204529282619
H          -0.37339576736562    0.57733025033577   -1.82796105844635
H           1.50004237103671    0.86800034007078   -1.78864360915220
H           0.15465736369981   -0.79352334373394   -2.28951861727934
O          -2.18246934878911   -1.25441460048165   -0.08374344756405
H          -0.91370737056719   -1.95464094254702   -0.67032289879640
H          -2.31583193998764   -1.22079005709450    0.88319563877437
H          -1.92576309943777   -0.33325562218829   -0.29653595584887
N           1.69718094109038   -0.90953595622229    0.40292904058076
H           2.31837794952467   -1.42694998321109    1.01456228563058
H           1.08839516340125   -1.55032209365892   -0.16259440542195
H           1.02808441287270   -0.25277988640050    0.99691298989094
H           2.21730643622818   -0.27047892439700   -0.21233518280491
