    26
        -50.46365344  Gyration_radius:  2.41766971165 Dipole_moment: 9.109
 S          -1.53825139741834   -0.35237273949091   -1.20335088137402
O          -0.74796089491265    0.89350542030880   -1.40462880292666
O          -1.20158988928995   -0.93081722775497    0.09693769059246
O          -2.92804155655212   -0.16034158201969   -1.43544888508108
O          -0.96410717521570   -1.35793891934608   -2.27044127693074
H          -0.03552350785209   -1.50444188317899   -2.01300056376279
O           1.41634696372010    0.65555161771358    2.01781025109832
H           1.77758944793298    1.18428488448940    2.72989521964620
O           1.62597469003470   -1.76867728724666   -1.44370006098601
H           1.93478087419035   -2.58380127612189   -1.84202144748415
O          -2.47903940669256    2.17349573871161    0.19024617084230
H          -3.27783740010085    1.68575623373537   -0.03094143768958
H          -1.84341736825715    1.89550768797058   -0.48989410924305
O          -1.15230835181255    0.78505626913287    2.09769026484046
H           0.41029640483661    0.73777830195603    2.09579331548524
H          -1.61687979032816    1.51737663319695    1.64848368491312
H          -1.30034314514745    0.03215527850692    1.48864620610004
O           0.99383236283340   -2.01280214559359    1.05173419603862
H           1.43977582810320   -1.97527064396821   -0.47818503306865
H           1.30352515218285   -1.27936012321933    1.60010348819228
H           0.07142127544659   -1.77165537884344    0.81867552122760
N           1.65911217265762    0.84017897365182   -0.64121834086917
H           1.99829030277373   -0.05416105189580   -1.01885549280123
H           1.66478397633894    0.82221172177231    0.40793992624548
H           2.18933414219458    1.62398778557518   -1.00482131787471
H           0.60023628033776    0.90479371195870   -0.96744828512556
