    26
        -50.45450023  Gyration_radius:  2.5067833429 Dipole_moment: 3.924
 S           0.62412382316175   -2.12137342940682    0.16893761941123
O          -0.17321377969356   -2.01958150888097   -1.03818187064179
O           2.05552416070192   -2.02869310220997   -0.10533928489289
O           0.19387393092479   -1.20162219926789    1.20369514007364
O           0.39712817584559   -3.57754427920978    0.75256954808510
H           0.92893269737346   -4.11769172592470    0.17639865040034
O          -1.72646686395715    1.68806955106286   -0.81933120194687
H          -2.46218558813879    2.01848295570418   -1.33603033583722
O           2.48985449580088    0.40360785007968   -0.50592894175665
H           2.48339941761759   -0.61758420217613   -0.36285562228804
O          -0.21074502024208    2.95947072363033    1.03188580125236
H           0.19015769065347    3.69976488062554    0.57386799165710
H          -0.81887788801952    2.53149596915297    0.39820487083070
O           1.52578428538508    1.03456937175733    1.69401541275088
H           0.87952078863421    1.76862801225727    1.57786857824398
H           0.99904850106987    0.20857759480094    1.74396429412326
H           2.16927614290835    0.77676627774125    0.45223638526418
O           0.40696880612738    0.39977998450868   -1.91325235668807
H           0.14900212547923   -0.53157428023010   -1.72727426958214
H          -0.32866909111849    0.94884248202025   -1.57663551952031
H           1.68461223168810    0.53087642395525   -1.15763278762561
N          -2.37085795188288   -0.62805733823615    0.19803811222623
H          -2.03683744230908    0.82306634990095   -0.38833677799885
H          -1.53325503128127   -0.81518305282143    0.75114876924936
H          -3.17897083569339   -0.83568856067083    0.77121262131634
H          -2.33712778102875   -1.29740472816298   -0.56324483610845
