    26
        -50.45450024  Gyration_radius:  2.50674402805 Dipole_moment: 3.923
 S          -0.13562474733130    1.03980466246757    1.95411383271629
O           1.23981497631429    1.16859409128947    1.51302490213143
O          -0.93840654701950    2.20988714137925    1.60875218331933
O          -0.74734769329304   -0.20270781671151    1.52522182258370
O          -0.11193114057579    0.99427307386662    3.53833737595938
H           0.03411303220520    1.90610693816815    3.77044349866579
O           1.43072831000764   -1.29574300100432   -1.66600987999365
H           2.23238144503207   -1.62042999317672   -2.07748583125514
O          -1.42344692776923    1.97375980636714   -0.83563689319173
H          -1.32266830769552    2.21510849519225    0.16169584125849
O          -1.15393117804281   -1.74892413621637   -2.33951073853271
H          -0.20941377236138   -1.65988797215995   -2.10569925376042
H          -1.24893516549998   -1.42391387771240   -3.23614204640837
O          -2.43514821980549   -0.27099374828063   -0.51411752083905
H          -1.95091637572674    1.03493134672913   -0.79752390979913
H          -2.05347136241407   -0.90608224076865   -1.16300419753692
H          -1.95062259911770   -0.41184551001800    0.32714814244200
O           0.99202673300223    1.33202574094783   -1.10809765553119
H           1.15198395011281    0.41670001214972   -1.41211968435318
H          -0.43908671374592    1.74961929000249   -1.09932968643253
H           1.21730235279610    1.33634117503900   -0.15019267671079
N           1.60264500339047   -1.62633606373832    0.91774107893106
H           1.50685773887891   -1.50043282215678   -0.67471729398330
H           2.24625500238162   -0.92028806608098    1.25839279562997
H           0.67751796632818   -1.29699741874253    1.19748553612184
H           1.78932424994539   -2.49256913680127    1.40723026856558
