    26
        -50.45901941  Gyration_radius:  2.63370298484 Dipole_moment: 2.638
 S          -1.36576994494459    1.26185937113194    1.70098647641393
O          -2.73940723059000    0.86730744604345    1.52476584909341
O          -0.55637122897444    0.30936254402564    2.44658993672577
O          -0.70699599000713    1.61744964829159    0.43869646861965
O          -1.38385504967225    2.59030953275672    2.57842385678815
H          -2.22523593105693    2.98330914510402    2.36558859383336
O           0.09988174124385   -2.45967598558589    0.16162090076745
H          -0.27228717064497   -3.04529396102805    0.82263943266962
O           1.56426295329415    0.48115849225088   -2.79681800692515
H           1.28839332351443    1.07382262423637   -3.49690083080191
O           1.85037828633636    1.50529033717576   -0.32563841597773
H           1.82253534231127    1.18526099068735   -1.25344141007916
H           0.93479630496616    1.77105866105807   -0.10759990840013
O          -1.70380151091174   -0.59473521296650   -0.47396534182031
H          -2.48818883767542   -0.50012714075871    0.08392228079291
H          -1.25244174692992    0.26608047205462   -0.31894088707190
H          -0.60814387991065   -1.80327431922622   -0.04712521883675
O          -0.26156477753069   -1.49760326261332   -2.66288138249753
H           0.92335162909747   -0.26314998796801   -2.79880016134052
H           0.12240748502179   -2.20223875439921   -2.13250839930831
H          -0.96984349281777   -1.12189973413697   -2.11853622022010
N           1.61716849072857   -0.50414462326596    1.28840961301014
H           1.26893920051402   -1.34477644646572    0.78623370858623
H           2.39963570219951   -0.72380283069507    1.89366377711212
H           1.85709359979746    0.28809296963432    0.59008310727078
H           0.78506273268453   -0.13963996533048    1.85153218163182
