    26
        -50.45476410  Gyration_radius:  2.47356462917 Dipole_moment: 6.129
 S          -1.77795908814387    0.61147132741255   -1.39632631860886
O          -1.44598751805629    1.12005737270970   -0.03784609308950
O          -1.59339081302219   -0.85657220420126   -1.39247800546060
O          -3.05137691481606    1.03618813545529   -1.86037003290813
O          -0.68123218532676    1.20278979858223   -2.33957595033999
H           0.20098416496986    0.95920787553041   -1.98195469801014
O           0.95453574551527   -1.84635215801508    1.38170819139911
H           1.42206100696702   -2.61374755388957    1.71273537139840
O           1.76828333994410    0.63228986807363   -1.47734528734268
H           2.38674500203246    1.23452748946867   -1.89273394324856
O           0.06820115345535    2.43428494043072    1.68675364544762
H           0.10038834081905    3.36924034407174    1.48023272560042
H          -0.54309369992532    2.03269326820951    1.03568584823901
O           0.82392898828816   -1.92188516746171   -1.20279553864506
H           0.96436131789942   -1.92236797612178    0.37594730683991
H          -0.09365012795604   -1.62919143256925   -1.39906429840794
H           1.37778648830482   -1.18677224521333   -1.50422339533952
O           2.06702231719771    0.72850830886878    1.10081240895600
H           1.91296439706339    0.71141165880834   -0.48693256151778
H           1.41544773757615    1.38516874319116    1.42310524159778
H           1.74072107812712   -0.13696778275436    1.39031572905700
N          -1.61902236509842   -1.10282638785650    1.13197350431974
H          -0.69388422740774   -1.45126014365900    1.45904832081686
H          -1.75481844032564   -1.37517116727496    0.11516593989723
H          -2.38476397603795   -1.36953844799579    1.73907876750423
H          -1.56425170204401   -0.04518645379891    0.93908313184672
