    26
        -50.46547931  Gyration_radius:  2.52118638338 Dipole_moment: 1.487
 S           1.77853134444815   -0.42191882017330    0.97865581538685
O           2.54059882129686   -0.57177539338003   -0.25576083200076
O           1.23307997880189    0.90928956390631    1.11837410868313
O           0.78194533269213   -1.46924619824862    1.13845107379915
O           2.79965303411667   -0.61765651684661    2.17605220040131
H           3.26473749630295    0.21202031351714    2.16304516459979
O          -2.64449616227893   -0.01873722888829    0.58496413092179
H          -3.54332393060371    0.20287518010858    0.83078570245609
O           0.11416638341790    2.12402168453755   -2.41097254104189
H           0.81805270424173    2.76960794276160   -2.33130519547888
O          -0.99460823564059   -1.71233444576229   -0.84738309947726
H          -0.37269741797407   -1.80320358717061   -0.09673004030026
H          -1.71217212222817   -1.15051346070745   -0.51204883117521
O          -1.23193215169006   -0.81041607109324    2.68875188642233
H          -1.44268908095843   -1.63982085337898    3.12178908765846
H          -0.40303920259175   -0.97721511515629    2.18456908111020
H          -2.17278869770079   -0.26324898417263    1.41919948771202
O          -0.90148935125768    2.05116292090071   -0.02419564698675
H          -0.12510591130955    1.72834938176539    0.47451781341016
H          -0.37440197275407    2.16000838229632   -1.53794730501921
H          -1.59309826901416    1.38512307879927    0.12392250339510
N           0.84055196937908   -0.41791088457757   -2.22298861845235
H           1.60389333109728   -0.46767426157598   -1.48366929420008
H           0.01215184427137   -0.94302970931809   -1.81357242390407
H           0.57407316602686    0.59504202809867   -2.38127838322231
H           1.15040707992884   -0.85279893623641   -3.08522583470842
