    26
        -50.46547948  Gyration_radius:  2.52123468847 Dipole_moment: 1.491
 S          -1.74153128219947    1.08618294885661   -0.29469903092965
O          -2.12823596145304    0.33802969735998   -1.48534899401494
O          -1.66538180611205    0.23936749377340    0.87417008712654
O          -0.53919127395161    1.87594551687949   -0.50953828861552
O          -2.89734984208831    2.13548806272139   -0.01561419309541
H          -3.57566725781539    1.57533902179228    0.34625283440184
O           2.32767427070980    0.30305556575907    1.35142717353339
H           3.03858845319606    0.28106207058882    1.99303047865014
O          -0.20280158136419   -3.20070366680360   -0.22632908279818
H          -1.06577834724332   -3.55684928396568   -0.00926392696396
O           1.62439483810803    0.52257849359584   -1.31338069072356
H           0.90742013023495    1.15783711515207   -1.11114567507701
H           2.04682545603308    0.34039059630836   -0.45817955195034
O           0.22696538771084   -1.47961075293567    1.66736633491356
H           1.03498480241708   -0.94678373103172    1.58253337215565
H          -0.50785440716429   -0.85850688648611    1.49422531406262
H           0.04409154393909   -2.61974299486695    0.55076527261499
O           0.78578521365950    2.43809977709222    1.68621162900291
H           1.13357951763786    3.31283688231776    1.50228845831985
H           0.17932317352843    2.23113209756198    0.93889455922918
H           1.77748448144901    1.09735866250301    1.56256447035034
N          -0.15884203667631   -1.27232121216819   -2.04407708236169
H          -0.17975017799879   -2.09964721864986   -1.38289398286754
H          -1.01700246287096   -0.66679874470720   -1.87478803926208
H           0.67554565809040   -0.65542031526629   -1.81410538397008
H          -0.12327649978744   -1.57831921538780   -3.01036605172791
