    26
        -50.46547990  Gyration_radius:  2.5211196933 Dipole_moment: 1.489
 S          -1.38271848406813    0.69307753945349   -1.38056985538127
O          -1.81806558031537    0.51545238479022   -0.01375780346131
O          -0.70792256683560    1.97132841403486   -1.57503258148413
O          -0.59773391273366   -0.42413074643464   -1.88154627071596
O          -2.69467027483914    0.72595374996582   -2.27073283496763
H          -3.25254721713174    1.30421483743795   -1.76158779209406
O           0.88684235002668    2.02065759745720    2.33600926463734
H           0.22158790129517    2.67138906942769    2.56550329845124
O           0.76095707266203   -2.38885477793402    1.02768126903152
H           0.88281533318780   -3.17306298214425    1.56404521630888
O           1.85755474528487   -0.68077429809642   -0.84945571686316
H           1.67959689588188   -1.29615858434646   -0.11964524677127
H           1.03198295242229   -0.66649698509199   -1.37550339928386
O          -0.46629309832325   -0.18841143131805    2.18713152644545
H           0.02601732625170   -0.96891366489174    1.88319603745851
H           0.41827189899971    1.13741317454251    2.38766125381868
H          -1.06403134251257    0.03996941884562    1.44812002217422
O          -1.16962842896992   -2.72968354799004   -0.76254729132111
H          -1.08376723606608   -1.83423140645481   -1.16233245075773
H          -1.04850050247421   -3.34821965157373   -1.48554691135405
H           0.00550474307037   -2.57541031423613    0.41720322063518
N           1.52101607905521    1.85732815442731   -0.23226056518094
H           2.23926725702036    2.49928834217854   -0.54942796024091
H           0.62286413451671    1.99851481816747   -0.78464529311169
H           1.81072200876548    0.85058243419352   -0.41154701944683
H           1.32087795583015    1.98917845558938    0.79958790346137
