    26
        -50.46547948  Gyration_radius:  2.52158335039 Dipole_moment: 1.502
 S           0.02581278479467    1.84480921119700    0.94681991677573
O           0.20186788689823    1.82451740873412   -0.48766065045061
O          -1.38184295834699    1.78507592270384    1.32374691207245
O           0.82144210820660    0.84135258054233    1.63637005830308
O           0.57668136624774    3.24485436956956    1.44804151947640
H           0.19963510590344    3.83529989488104    0.80455916700717
O           1.80868884717994   -1.85448120235219   -0.79313273375687
H           2.42566114467040   -2.39768183041833   -1.28486911324287
O          -2.45374810664711   -0.59837075288281   -1.98931415436406
H          -2.83492571767219    0.18496257059637   -2.38902474835650
O           0.03678623795847   -1.69738451425575    1.32361070614401
H           0.38656253247358   -0.82578811175957    1.60026666398830
H           0.58856522477193   -1.96122274415790    0.56941773256811
O           0.10037467309610   -0.20699701511871   -2.22776248851424
H          -1.47156791757537   -0.53406899502401   -2.17201587089806
H           0.19385529070729    0.59910580219172   -1.68265966770966
H           0.67367014878834   -0.86757771768980   -1.80469479635419
O           3.03890087195573    0.17323751053471    0.39926126488761
H           3.64081253668336    0.00421662362875    1.12663629263079
H           2.32941031202455   -1.10419235051685   -0.41326192916131
H           2.22503002389214    0.54527670084283    0.80948459838756
N          -2.25038573938365   -0.57695292251843    0.65312489739500
H          -3.07200908411275   -0.88579505008687    1.16116749395499
H          -1.98662823765000    0.41430447629642    0.93550439572218
H          -1.40840430303410   -1.17693563132280    0.89931758505256
H          -2.41424503181836   -0.60956423361295   -0.39293304155575
