    26
        -50.46547996  Gyration_radius:  2.52110046894 Dipole_moment: 1.500
 S           1.85213011476913   -0.24065727961631    0.89845692359259
O           1.83589436034430   -1.69536114767707    0.79448178309209
O           1.80126398711136    0.39293439057988   -0.39960901111344
O           0.84112787735223    0.25607727934408    1.81844216177619
O           3.24594297457938    0.15763998377349    1.54144311640685
H           3.83905587672796    0.00845030513785    0.81284598501256
O          -1.91021870092681    1.91693821811951   -0.14250816435758
H          -2.48232209013115    2.64485125637225   -0.38797526629815
O          -0.55750835172292   -1.67054505127455   -2.68734095904823
H           0.23192233821519   -1.87436678466598   -3.19123820612492
O          -1.68027791052515   -0.44922395794603    1.26730042303439
H          -0.81516756960110   -0.18695012414554    1.64326371799850
H          -1.96566082960177    0.31387051194815    0.73871271477058
O          -0.24114718276325    0.83106657943441   -2.07402421067269
H           0.56733480720108    0.75829746575787   -1.52946729249445
H          -0.52403394004021   -0.68141375459108   -2.53709646748852
H          -0.91112294532569    1.21312252836671   -1.48328170279825
O           0.10586342873008    2.73809192386766    1.37720223151607
H          -1.16644621357650    2.30303001746538    0.38282834629564
H          -0.06346523522121    3.06568844326892    2.26263153573937
H           0.50161770298041    1.84467796957778    1.49634710747049
N          -0.51014894890445   -2.35272292183003   -0.12653117709743
H          -0.54979065762194   -2.16060255034561   -1.16753833529766
H          -0.79415768993579   -3.30422184741729    0.07984360141966
H           0.47713460361734   -2.17237759467431    0.22631056820381
H          -1.12781981571648   -1.65629385883122    0.38650055646140
