    26
        -50.45437208  Gyration_radius:  2.50803103155 Dipole_moment: 3.475
 S          -1.40248199270265   -1.68640411309182    0.46344770328173
O          -0.95536929615058   -0.60932651193225    1.33965011627164
O          -2.57854362965863   -1.28259534240921   -0.30348716681939
O          -0.33294212930546   -2.22109678380241   -0.34304407717539
O          -1.90031205801804   -2.86184246570273    1.40199332743111
H          -2.79080697260578   -2.59601814185299    1.60907219457036
O           2.38979747288734    0.69079542096572   -0.58893468359207
H           3.30203937657857    0.57945299980564   -0.85886739964213
O          -1.90687612402980    0.80399127258953   -1.51469770508695
H          -2.32935921837202   -0.04324742842753   -1.10676810442300
O           1.08183811910691    2.91791609098755    0.21671883665584
H           1.12030017340047    3.53334782698675   -0.51702035757304
H           1.61662820117612    2.14048142733583   -0.03814390732540
O           0.30070918489731   -0.28459085223380   -2.02883906470867
H           0.12966646328466   -1.10633767409664   -1.51755496584234
H          -0.98166041782018    0.45218552904219   -1.84551990596693
H           1.07497933249404    0.13292898766240   -1.60114445432868
O          -1.35658373893663    1.90305339363889    0.64051768105948
H          -0.47409838275756    2.33787143711020    0.59367584741686
H          -1.71148385339460    1.40287893366654   -0.63938169548191
H          -1.21838780053237    1.04004468509326    1.09064997273471
N           1.81121686410775   -1.11732095707976    1.19973968305025
H           0.84866145748714   -0.86179074787495    1.42581624822623
H           2.21766764167380    0.01177273606323    0.14764528882920
H           2.30673028200810   -1.27571403386064    2.06817233483484
H           1.73867104518848   -2.00043567858656    0.70630423359950
