    26
        -50.45437213  Gyration_radius:  2.50797159761 Dipole_moment: 3.473
 S          -0.98901128811500   -0.67870889523835    1.89390657079039
O          -1.66444519138018    0.54989019174229    2.30460289082000
O          -1.32711309471031   -1.02579458442144    0.51801899972545
O           0.43441349404781   -0.66991492054114    2.12634329656778
O          -1.59687675156935   -1.81607520619927    2.81436484146002
H          -2.50132138059687   -1.53639850896933    2.91568582217798
O          -0.99207487036579    2.28111879370771    0.62439743604386
H          -1.34558629986254    1.69915786852202    1.39833774282498
O           2.10692962266087   -0.05097323099407   -1.44710754602138
H           3.02421148282863   -0.21414881608159   -1.66939128646315
O           0.08062961545054    0.83905805226132   -3.00312091209233
H           0.33941006143437    1.70918412963917   -3.31055061790313
H           0.83903429911523    0.47913130652938   -2.50249529294066
O          -1.90406209623988    0.88230763487610   -1.21048108593884
H          -1.42244577510468    1.79608695597741   -0.23743016285546
H          -1.25640746391289    0.81317146467552   -1.94932039470916
H          -1.81261611560304    0.05857460038598   -0.68165155492165
O           1.35389281442743    1.38296673503395    0.73592062258090
H           0.02503998581808    2.04709710948035    0.61874773392540
H           1.14881460432925    0.64044909654734    1.34630307915130
H           1.67380279590554    0.96336302692063   -0.08769087402857
N           1.14944441854585   -2.14452740150000   -0.22109679729193
H           0.17825870493945   -1.85954242598159   -0.08503420259158
H           1.55446794783519   -2.14667134745396    0.70872519410982
H           1.15225940794441   -3.09347943156506   -0.57362362898188
H           1.75135108217898   -0.90532225736452   -1.02635986343929
