    26
        -50.46603956  Gyration_radius:  2.42518897271 Dipole_moment: 5.943
 S           1.67473559211094    0.96310781937994    0.68920853993251
O           0.78569299111129    0.32165544725061    1.66697433948436
O           2.75204297749078    0.11768870847304    0.25397749748516
O           0.87505951288021    1.53480298439064   -0.37870244947204
O           2.35103116883923    2.17884931732318    1.44871586459427
H           3.22918635204937    1.83400867664848    1.56497067954109
O           1.76219717945026   -1.85456264375067   -1.31636044503887
H           2.29710366000147   -1.17311184685794   -0.87207506340286
O          -1.88932930967585   -1.66050752733391   -0.07662087765361
H          -2.44073891101572   -2.43450396958808   -0.19073667678791
O          -1.57061651233437    2.30002334711350   -1.10511209839553
H          -1.59542605138826    1.66707661337518   -1.83672240527303
H          -0.62013963780550    2.43326682096907   -0.94392421571878
O          -0.42509708331113   -0.18630750853368   -2.01587238262193
H           1.13235053001549   -1.38097521644522   -1.88119218208341
H          -0.96649127819952   -0.73417767700093   -1.42850113805170
H           0.11638705290405    0.39622749468662   -1.45281125779785
O           0.38948337555538   -2.26782410667832    0.91922088228403
H           0.95819058201658   -2.33123234881271    0.11435578439938
H           0.65547974759188   -1.43680772143594    1.34888110157687
H          -1.01881705584509   -1.98617226339349    0.33022912614248
N          -1.71209380009340    0.75014570852420    1.04852775886342
H          -0.69389103604906    0.65171065384835    1.35692096699643
H          -2.29234605991694    1.05385911318097    1.82284941348434
H          -1.75224940931580    1.43450410765858    0.23482879775526
H          -2.00170457719755   -0.19074399293949    0.69897043962096
