    26
        -50.46254927  Gyration_radius:  2.41955985246 Dipole_moment: 4.383
 S           0.73305084731184    1.33503979871015    0.49689944168037
O           1.57184576136974    1.46636025459000   -0.70120957094774
O          -0.67880297442765    1.26490259295199    0.10006037294503
O           1.12112811341583    0.21545774552809    1.31913064361481
O           0.91428519420323    2.62987254881712    1.34218889301662
H           0.63459194632216    3.32993823053591    0.71609133278803
O          -1.11803482800506   -2.59653514564203    0.10806102592659
H          -1.65431826777504   -3.37673872547655    0.25217559156828
O           1.47255267970782   -0.68865138661237   -1.96744048944565
H           1.64506068703817    0.23437839642317   -1.52995887229047
O          -0.00658265003963    3.71088992075180   -0.87010747115752
H          -0.66403015030454    3.00850015921298   -0.76163604580220
H           0.72546202671052    3.29837913226655   -1.34462113071346
O          -1.02453728395370   -0.61013518131518   -1.74960235360314
H          -1.20997360359549   -1.40422991613432   -1.21172279780937
H          -1.03420094117554    0.14065978051277   -1.11488314930729
H           0.42647217382629   -0.69548574887646   -2.06566347022193
O           1.55993121539713   -2.08272826955331    0.10251296814914
H           0.66113083594324   -2.46568750636463    0.12922449103073
H           1.63899915340307   -1.37413671128439   -1.17274318902154
H           1.52397591459652   -1.30288763787120    0.70178386504157
N          -1.51057347447281   -0.76028062215845    1.94590699827167
H          -1.32404199674186   -1.95036356751727    0.85484953564867
H          -0.68922201606064   -0.77678220693588    2.54011032532451
H          -1.39123135891748    0.05856576695697    1.34966764536877
H          -2.32293700377057   -0.60830170151639    2.53092541994296
