    26
        -50.46047642  Gyration_radius:  2.51646625458 Dipole_moment: 5.353
 S           0.31261054343277    1.57543593864054    1.50314011649823
O          -0.81038470497655    1.19258272086732    2.31989885541772
O           1.54134663916024    0.85273808843530    1.83446705589442
O           0.06948823671054    1.52099245206632    0.07042571289054
O           0.59284132357978    3.10476635517290    1.83535519422828
H           0.28258325185357    3.15726482994112    2.73315799181310
O           0.21659841360718   -2.22983768432556   -0.26322288429967
H           0.20595621786908   -3.17201739912070   -0.09116714467144
O          -3.31408013698992   -0.66387512136097   -0.60449062416956
H          -3.84469515731256   -1.27359110327166   -1.11822495371444
O           1.59220680592550    1.24207017990618   -2.08800188841346
H           1.11209191075561    1.68733297644569   -1.36191110477845
H           0.89056946576930    0.84529665571646   -2.61995045366727
O          -1.47012248836219   -1.19765923291043    1.36756051619031
H          -0.41505127879915   -1.82354636690219    0.41829379234297
H          -1.24167760336980   -0.34734659877392    1.79593975799094
H          -2.25558589615902   -1.00657637783879    0.82055421855214
O          -0.92440152078682   -0.14941578900982   -1.80139532545864
H          -0.70608104162974    0.50971555051433   -1.11458586396929
H          -0.54804252202400   -0.98051753544017   -1.47957648012738
H          -2.57542547156479   -0.37698850634116   -1.17948130673132
N           2.28465158763384   -0.51147530680248   -0.20690527592115
H           2.14811733819025    0.12674988344229   -1.03879313852001
H           1.58313369453173   -1.28492784484655   -0.24950527818869
H           3.23306238929442   -0.86565727138629   -0.15390763847128
H           2.04028999375002    0.06848649717425    0.67232614933956
