    26
        -50.46047644  Gyration_radius:  2.51635446291 Dipole_moment: 5.352
 S          -1.37375217336295    1.71419100602913    0.11300185141392
O          -2.49853100685931    0.94336299216004    0.57714525034087
O          -0.50943997461112    2.18545224776127    1.19591222476925
O          -0.57807436291436    1.06864241094774   -0.91895363009109
O          -1.98631707582601    3.01514776229659   -0.56530952216688
H          -2.79686090046496    3.11262039753977   -0.07688852106031
O           1.16114167856268   -1.39820376367265    1.33663520252725
H           1.39938147072685   -1.97121638707544    2.06624696762332
O          -1.52822675730594   -2.90106890182236   -1.01900304184227
H          -1.30983479921414   -3.82536088293781   -1.14234966752019
O           1.93426031087637    1.26675433780508   -1.75767731320469
H           1.97203163567227    0.35951307091294   -2.08655512560478
H           0.97651532163437    1.45298201057329   -1.69406920656373
O           0.62524344925544   -1.29026080503401   -1.43804727563026
H          -0.77738525775807   -2.38255089255089   -1.37385599872159
H           0.07026295407340   -0.49486597624800   -1.32330220078877
H           0.97823083898449   -1.47855297392411   -0.55721713732139
O          -1.40108232298918   -1.37486964439174    1.26758673782185
H          -1.85388220468424   -0.52677510742673    1.08216058649405
H          -1.63240014420747   -1.95815473617379    0.51994976155339
H           0.14801826190248   -1.35469163750678    1.34694093842423
N           1.82815024241671    1.17056651654201    0.90167811938576
H           1.68971149378434    0.16663358087829    1.15690262024371
H           2.55017613226206    1.60623469588833    1.46435298066163
H           2.03867678928872    1.23960230068469   -0.13221284467386
H           0.87398639075836    1.65486839874923    1.05692828393179
