    26
        -50.46047631  Gyration_radius:  2.51607014149 Dipole_moment: 5.367
 S          -1.96954017676248   -0.77130208669121    0.60367287198729
O          -1.27746649921767   -1.26282336453168    1.79579792467539
O          -2.56716694132053    0.52636504427431    0.78693085866008
O          -1.10527702253719   -0.88429807300648   -0.56042517770051
O          -3.17550867040138   -1.77437211439776    0.34416472626386
H          -3.87857193489132   -1.34314446095930    0.81827474894317
O          -0.18053883872094    2.86547010610960   -1.88396561711573
H           0.41809798866047    3.50739074549495   -2.26723407885829
O           1.82084800698228    1.01008536268239    0.87007804360221
H           2.37716395004987    1.58492929023505    1.39685709446144
O           0.92363878875936   -2.45257075023089   -1.25093239835889
H           0.00062242054922   -2.14554402792848   -1.15173906381262
H           1.32239433602763   -1.79982948778441   -1.84049564645487
O           0.95203000141901    0.39424147118583   -1.75015642996281
H           0.20705180241529    1.98196043399871   -2.05033134723984
H           1.45908016911457    0.63415389310929   -0.96199174621289
H           0.11880031014492    0.01565484700211   -1.40926864185672
O          -0.46966283163522    2.15643558796515    0.75894649361449
H          -1.27386089434815    1.60296037710672    0.83209872377396
H           0.90473515972233    1.44433635141431    0.87260957378510
H          -0.50642924904161    2.54605847596634   -0.13537915460758
N           1.20852724389523   -1.58130092821351    1.24947922405178
H           1.23345582999378   -2.02497804577327    0.29000305302594
H           1.72307344327073   -2.12686353384300    1.93163090641067
H           1.56795248059911   -0.60224500782776    1.18421013146736
H           0.16655112727280   -1.50077009535879    1.52716493745953
