    26
        -50.45870288  Gyration_radius:  2.54188189692 Dipole_moment: 6.078
 S          -0.42996834380775    2.17278876850525    0.11584848180464
O          -1.69082105593906    1.94533098855736    0.83252444919189
O           0.67983048172288    1.61924146198944    0.89111391246930
O          -0.44902055976714    1.71933816236722   -1.24346320556942
O          -0.23119892730307    3.74185573797212    0.09995724246605
H          -0.34678749566502    3.95919877728226    1.01881629881568
O          -0.86351592804184   -1.96470811668773   -0.53288193321925
H          -1.13867362439116   -2.83832975504835   -0.81231466020293
O           2.19078978758130   -0.91326288770548   -2.55563554983181
H           2.85747464459076   -1.57714541924384   -2.73301131718997
O           0.74387997059222   -0.23602804743967    2.78164864720324
H           0.81457109803548    0.60989203920363    2.29011916188874
H           1.37928677396441   -0.80974559153977    2.33554990460969
O          -0.52836699699118   -0.55723168679177   -2.63141938269478
H           0.41791402774515   -0.67693871136807   -2.83384069399532
H          -0.79224423232124   -1.41034377324298   -1.38793575415521
H          -0.58434865466239    0.34730077878149   -2.26721072760807
O           1.62096749029983   -0.78856734306647    0.10027888086814
H           1.36208627209141    0.14321639012186    0.24025508716499
H           0.79928128586953   -1.27255847300856   -0.07368610490300
H           2.15435206328092   -0.80369208268646   -1.58270248786236
N          -1.61384607821750   -0.50306040982292    1.59858005685289
H          -1.45825594763597   -1.10729414933565    0.76119598538367
H          -0.73679966258425   -0.51668604335705    2.19496888602427
H          -1.72830630125758    0.52041994251775    1.26996800771629
H          -2.42828009718626   -0.80299055695945    2.12327682477017
