    26
        -50.45870293  Gyration_radius:  2.54173456271 Dipole_moment: 6.073
 S           1.85505240750628   -0.74355259398306    0.96048295689736
O           1.92773846768871   -0.14666101349218   -0.37275303525348
O           1.82744358055175    0.31891774756783    1.97308870202113
O           0.79257356379823   -1.69585291838985    1.09435292466424
O           3.22128059519141   -1.50750758675467    1.18800324072646
H           3.84449888818508   -0.78882038921229    1.19445078394658
O          -1.71842894289537   -2.38478373796830   -1.87614912278985
H          -2.27285744409306   -2.43106246238799   -2.65535023835424
O          -2.07472677138742    0.65680552742217    0.39411037003612
H          -3.00213320484601    0.88211789819347    0.47262638682204
O           1.28084741798797    2.26839817200384   -1.25005729873301
H           0.66281446233748    1.96581603746517   -1.92705817498483
H           1.77323814747193    1.45496512665164   -1.00902497175622
O          -0.38674766089447   -0.01665659225881   -1.76335847348952
H          -1.00900749649871    0.27834407621234   -1.08111221783456
H           0.44260825778238   -0.23759588191211   -1.29618116914615
H          -1.15050651510584   -1.59339594591583   -1.98120556679572
O          -1.85539508612484   -1.84830211098485    0.81097125500070
H          -2.01137387120813   -0.33722769942505    0.62077735589986
H          -1.91790036045200   -2.23169935580663   -0.08333208457241
H          -0.90868695493947   -1.92291592623835    1.03935367820579
N           0.11917546315487    2.03492812220192    1.12200820272910
H           0.00084008184801    2.84169648393145    1.72506230547646
H           0.81710842549877    1.33334956355695    1.55718357547973
H          -0.78908997623991    1.54567416546722    0.96019906238004
H           0.53163448568770    2.30502129405782    0.18291157342579
