    26
        -50.44580813  Gyration_radius:  2.45505654285 Dipole_moment: 6.574
 S          -1.86739511709537    0.00340116966883   -0.70087138199021
O          -1.17583410616969    0.47271008504911    0.48615589010450
O          -0.90805397606672   -0.17169763985158   -1.81389218572577
O          -2.70162960419258   -1.14191010446496   -0.51541340168020
O          -2.80102103854387    1.21151851276922   -1.14037818856656
H          -2.32921371179258    1.99723615252213   -0.87615798813677
O           2.23087047556530   -0.73339316465097    0.16153152188930
H           3.00707589679792   -1.25263931100644   -0.05271646123086
O           1.05326133077161    2.97738424210993   -0.26582937760775
H           1.79199956414385    3.58535294838068   -0.20554091127861
O          -1.83308434563629   -1.84615112536551    1.94616824882629
H          -1.62221160052489   -0.94410897152165    2.20227746966465
H          -2.36529309197491   -1.74775409868815    1.13789601042973
O           1.31612903559264    0.83312875569460   -1.62812456331829
H           1.19774559424726    1.74192946017152   -1.17511082815489
H           1.75478445425137    0.21651762575849   -0.93018724231893
H           0.31218636612004    0.41130970112695   -1.75417453742268
O           1.02472323230397    1.29212332911877    1.71568595742249
H           1.62588831614991    0.57769311338407    1.46435034149173
H           1.02380232768314    2.46970818381672    0.59635651983172
H           0.14248950487799    0.97499641865170    1.44389765687140
N           0.17859625100476   -2.25907580145988   -0.02995163573681
H          -0.38955099070109   -1.79950373994436   -0.73585824421672
H          -0.38097135674119   -2.25214280260188    0.82854038667730
H           0.29534925594085   -3.22669436758331   -0.30590715781904
H           1.41935732398217   -1.38993859108878    0.14725413198083
