    26
        -50.45724836  Gyration_radius:  2.57037600591 Dipole_moment: 4.676
 S           0.79803959349884    1.86642452590820   -1.54155142804866
O           1.62075407016582    2.18602533874748   -0.36682007231376
O           1.44058002696954    0.87212165023507   -2.38251531533430
O          -0.55209688804878    1.51808835233830   -1.17546926112745
O           0.71942910335015    3.20321112870593   -2.39327905897726
H           1.61528496944635    3.30861070765930   -2.69912375090713
O          -2.14175348027654   -0.97942013934119   -0.74946050284406
H          -2.43429331532734   -0.54881365093903   -1.55435242256898
O          -0.21868705858283   -0.67727433341446    2.61765765471431
H          -0.53640528047149   -0.82571861937611    3.50866629683388
O           0.54041515455927   -1.27278450525547   -1.17931366300133
H          -0.42708102598552   -1.11544100750074   -1.10148965158928
H           0.86308354881514   -0.58588066368239   -1.80609311756054
O          -1.92112266345206    0.96212859514642    1.03601724851765
H          -1.41532187073822    1.39996793397959    0.32488602084187
H          -2.18235738415129   -0.26893207270599   -0.05801426322348
H          -1.27662379641088    0.61051467832490    1.66588211885549
O          -0.84725842367360   -2.68488478258343    0.99495311383599
H          -0.49189287364189   -1.46668570256913    2.08371976803325
H          -1.57423741837168   -2.31275735192454    0.47296658638635
H          -0.13820059424022   -2.82074695348500    0.35837111495311
N           1.72975109041949   -0.08165198216385    0.81699718553948
H           1.72967664956983    0.92282675174727    0.41550745024161
H           1.14694508271526   -0.14707013609469    1.66574278437069
H           1.27418200949163   -0.67555051663224    0.04405208485479
H           2.67919076427077   -0.38630725531173    1.00206306957491
