    26
        -50.45484717  Gyration_radius:  2.49645980259 Dipole_moment: 5.244
 S           1.44393120586083   -0.07010223233168   -0.62453096948904
O           0.54920615098158    0.85181953567822   -1.35610600853531
O           2.24821484817366    0.65586184906002    0.33431835261998
O           0.67967938752806   -1.15691141754324   -0.05120655233465
O           2.38540499494067   -0.70965103317266   -1.69818406925340
H           2.88354195304693    0.06222073790463   -2.03340316056625
O          -2.21939634334450    0.70610209793915    1.15836994789969
H          -2.71262138145327    1.51272650702375    1.31492884898634
O          -1.39150378084856   -2.35011950821108   -1.22546789671633
H          -0.43652637507596   -2.21156330692966   -1.08279612852118
O           3.11170029738946    1.81855851655974   -1.91619330998564
H           2.22148693355153    2.08495526342876   -2.16966697068514
H           3.07060664308385    1.69496615713217   -0.95356733419627
O          -1.50396112914473   -2.05113467041243    1.43283800242668
H          -0.60267780793732   -1.79304310531267    1.18569960729686
H          -1.98281249739437   -1.22728147711371    1.57621791225412
H          -1.71520584130927   -2.55964444265000   -0.32355662696292
O          -1.80816174236112    0.12498114089786   -1.31469399369046
H          -2.05098228477320    0.35366695607046   -0.35334867227562
H          -0.80344958056639    0.46707775834907   -1.40769955086512
H          -1.73164767963695   -0.92977414981901   -1.36243506825593
N           0.15100372776391    0.97066638226987    2.21877685839341
H           0.34363197561796    1.83673935531908    2.70852843862431
H          -1.29022568166949    0.84265387343605    1.55630471871361
H           0.87566247600180    0.86138335061693    1.50599073680802
H           0.28510151157317    0.21484590181060    2.88088289830469
