    26
        -50.45484720  Gyration_radius:  2.49649474384 Dipole_moment: 5.247
 S          -1.09579237809190    0.90510219335458   -0.67842081828740
O          -1.61118337658108    1.67650839443141    0.43172076896319
O           0.28056540330469    1.32925743271110   -1.01160537735273
O          -1.14089520137128   -0.52666342461273   -0.47327299793429
O          -1.96290620349056    1.19729118483863   -1.94758267400186
H          -1.91022740064070    2.17079493300869   -2.02352698995958
O           1.94340324198935   -0.96823323279090    1.43194521983927
H           2.72774928003826   -0.64215213758503    1.87567619547961
O           0.24064057254834   -2.31203906075653   -1.88449988306276
H          -0.51471004688281   -1.71050514446893   -1.74549424087954
O          -1.23393413454148    3.65745075575450   -1.32806953412841
H          -0.30149756156561    3.44112386205553   -1.43510742510790
H          -1.47839731100326    3.28784683411639   -0.46366429331627
O           1.86401432502072   -0.56052409367755   -1.10764120944487
H           1.27589393770129   -1.34107035397986   -1.51468876840915
H           1.22276459352850    0.29003306827536   -1.12638581082383
H           1.96497275984384   -0.76260822743688   -0.11537773395873
O          -0.11269661643259   -2.82767867196145    0.71933868998436
H          -0.67598212138722   -2.06095880153128    0.53287080978771
H           0.20099515998584   -2.89214865077523   -1.09463011530971
H           0.67121007035404   -2.47726143235943    1.15663637523500
N          -0.13293264190357    0.27680401673672    2.40730490724437
H           1.14997641676106   -0.44976655816721    1.80883144717985
H          -0.63071568440181    0.77566738972299    1.66672210715644
H          -0.77707156972684   -0.41867906215586    2.76647371184665
H           0.03675647694027    0.94240876726562    3.15244762926934
