    26
        -50.45484715  Gyration_radius:  2.4965124153 Dipole_moment: 5.248
 S           0.63809282646549   -1.43284663435560    0.13997382068757
O           1.25783648628567   -1.38628114424704    1.44641927221644
O          -0.83494514038366   -1.44896479303087    0.26367370923752
O           1.05266436436170   -0.36816861809751   -0.74806705399298
O           1.03260669098440   -2.77372534660650   -0.56323335123795
H           0.74764185836752   -3.44772552716423    0.08542265816517
O          -0.23600126976819    0.35805005329962   -2.96212841877597
H           0.37638119514613   -0.21291666235806   -2.46156875169505
O          -1.20784416431917    2.27413221121893    0.36777007805518
H          -1.89072967777803    2.63040002772735    0.93800698248261
O          -0.01934220025812   -3.72839547017175    1.66160139408174
H          -0.87338381724564   -3.32821707149727    1.46627833899061
H           0.53051904071027   -2.99680919192613    1.98720286255226
O          -1.92565342861326    0.28985010833290   -1.10535910990813
H          -1.70138237514015    1.11795829156522   -0.55819443413493
H          -1.31595451700373    0.32723508578935   -1.96997863959891
H          -1.51854121478886   -0.50898083500769   -0.52969812694802
O           0.92820662288934    2.30301430629739   -1.53693348923234
H           0.23866590408248    2.63827226378279   -0.95325131758236
H           1.23451798769558    1.47537313819054   -1.13552770148687
H           0.14770006688370    1.25115619253694   -2.83088259567233
N           0.72741157406694    1.36875625956812    1.86715640331430
H          -0.47658049049976    1.90279080343904    0.97415203785999
H           0.62632522922244    1.48286949420366    2.86906063939700
H           0.87895107899467    0.37300028819198    1.69228078685433
H           1.58283736963662    1.84017279031921    1.59582399636670
