    26
        -50.45484712  Gyration_radius:  2.49655819636 Dipole_moment: 5.249
 S          -0.52312049607325    1.40637759282773    0.47828451256511
O          -1.11742386955593    1.11071378272603    1.76376794068744
O           0.94904716114201    1.29101104673403    0.54748723359017
O          -1.03637901127511    0.60024018408806   -0.60837413053558
O          -0.82822735088064    2.89527580120331    0.10667736925556
H          -0.47940573848014    3.38445115330850    0.87827713921008
O           1.03682129232512   -2.37770272127340   -0.19158459183592
H           1.70128082396391   -2.90054544488201    0.25960655773937
O           0.14843533785930    0.30073591228558   -2.97355677575258
H          -0.40803814026267    0.78507290840403   -2.33521243600545
O           0.33905111634303    3.24944074628152    2.44738226177837
H           1.15637696478321    2.84572000629849    2.13656459405295
H          -0.25784664295806    2.50323311606408    2.62188690261058
O           1.87566227340129   -0.16924888956831   -1.21223748229061
H           1.24759599706586    0.03153369767071   -2.04055728473034
H           1.54268510230130    0.50676653046858   -0.45904579174763
H           1.59926492167776   -1.08103897716795   -0.85484081999959
O          -1.13290685737590   -1.82816789446845   -1.97535044037961
H          -0.29973041942984   -0.56977485555071   -3.03149554024413
H          -0.45950256662555   -2.33329651448460   -1.50639597789815
H          -1.36695746364612   -1.09231334659377   -1.38914769652498
N          -0.79358730218921   -1.69866032292121    1.54096144293637
H           0.34834107595341   -2.10164726112043    0.50843975402145
H          -0.68224632378979   -2.04199361809671    2.48796724639987
H          -0.87131540931143   -0.68089233348236    1.59800220748402
H          -1.68787445496184   -2.03529031874944    1.20249378560922
