    26
        -50.45176875  Gyration_radius:  2.4370232823 Dipole_moment: 1.847
 S          -0.04515814675388    1.50381586861572   -1.03522544158761
O          -0.22327511861274    1.26070664024691   -2.43922371892146
O          -1.25018637157825    1.20201511943666   -0.24976050245667
O           1.12254278457188    0.89267532974787   -0.43332628737578
O           0.18929376636215    3.06840889125408   -0.86602793097710
H          -0.30653879345382    3.46438409323033   -1.57579609988570
O          -0.21396633662936   -2.09153979341979    1.30945893680807
H          -0.88205833343271   -2.75179486937043    1.49862898812577
O           1.50905486113303    1.33300257589122    2.17096562610109
H           1.49929404968452    1.58531283933724    1.22845955134672
O          -2.44046623581669   -0.29427295792215   -2.28274167661362
H          -1.72440567779464    0.26678627596213   -2.62459313092546
H          -2.71028772405315    0.14463060494360   -1.47018481499110
O           2.41905698091247   -1.00092677887297    1.27559478456749
H           2.22011937303743   -0.53691969265529    0.45160537971820
H           2.07038660619578    0.52590777637805    2.17447033980649
H           1.69911934537080   -1.63053913073398    1.40405531665022
O          -0.76555968212628    0.29914581756593    2.01090861941744
H          -1.04118865988973    0.71065070959944    1.08577733788473
H          -0.56265317686466   -0.68849422018399    1.80617180875321
H           0.16726623138099    0.76162091598610    2.21780995730276
N          -0.14262617018658   -1.61843084976716   -1.22196283884033
H           0.32423588241354   -2.27073351665131   -1.84012204900275
H          -0.19838059648574   -1.96484778698850    0.28292359478053
H           0.35725374173028   -0.73513049633724   -1.26593525439484
H          -1.07087258915576   -1.43543335530278   -1.61193050482162
