    26
        -50.45176940  Gyration_radius:  2.43706616753 Dipole_moment: 1.833
 S           0.45818681696888   -1.49288669805597    0.94569893671999
O           0.90106098543023   -1.24119232074801    2.28843466958388
O          -0.97718539017759   -1.23625760506116    0.76357025193750
O           1.22779376219795   -0.85189026469855   -0.10147162052677
O           0.64634227513414   -3.05135468796645    0.68590152172130
H           0.54289771494149   -3.45225631262918    1.54322021496671
O          -0.83107897281678    2.06914688053334   -1.07852785599595
H          -1.53642708435963    2.70600202027346   -0.95604870868380
O           0.45698282860998   -1.30947710744939   -2.61528553822673
H           0.86603230074036   -1.54874405007747   -1.76228336125761
O          -1.21314002600867    0.24193377563330    3.11912340919538
H          -1.79608047745737   -0.21373770897925    2.50416496880268
H          -0.40194881266667   -0.29311128345281    3.11221935718725
O           1.58917016719584    1.06171348538798   -2.19792672555444
H           0.86500053584351    1.66738013852327   -1.99801717778107
H           1.78343540504215    0.60057120273371   -1.37121836204719
H           0.93402270987366   -0.48618399315038   -2.86202059176891
O          -1.55484524867971   -0.34435694160407   -1.47975930603999
H          -0.79008579272027   -0.78018088906289   -2.07307310213599
H          -1.38721807461085   -0.75400046449945   -0.52858592426113
H          -1.31496536640786    0.65137530706006   -1.37985410001137
N           0.34827289681768    1.62617388992862    1.16856509658881
H           1.01556591154335    2.29951289814134    1.52472270622752
H          -0.36686482033118    1.95414687572763   -0.16108615933228
H           0.84646525354467    0.75970345406748    0.98684344292797
H          -0.31138948672881    1.41797040956883    1.92269395848546
