    26
        -50.45176877  Gyration_radius:  2.43687032393 Dipole_moment: 1.851
 S           1.54869396329226   -0.95635032571840    0.13953092138342
O           0.99686809502267   -0.77952716505233   -1.21094942280256
O           2.72634655267409   -0.16615348986631    0.36535080469245
O           0.50568189891716   -0.83138880803543    1.13764538964245
O           1.99647566673371   -2.48119792870253    0.21764708794888
H           2.89817087577574   -2.48375197939678   -0.08795940376000
O          -1.68929337474375   -2.30377371647230    0.77192352222899
H          -0.75134481460874   -2.16327117899002    1.00181908430590
O          -1.97865126155352    1.42785946962869   -0.42404429236088
H          -2.27343700732132    2.06711109938330   -1.07407993268978
O           2.43156337297725    1.56302363289541   -1.70387124702135
H           2.80759164125523    1.06287086413242   -0.96031984949851
H           1.95773329782716    0.89860597077523   -2.21345094737256
O          -1.48013503242487   -0.91565372785477   -1.30099491105730
H          -1.67477688329708   -1.57452806073093   -0.49157305748912
H          -1.75570147422957    0.02423561660116   -0.98515791197610
H          -0.43239991491158   -0.88492110317362   -1.34185780892846
O          -2.07773294254192    0.00182378008422    2.04201263516491
H          -2.15532527193358   -1.67173344705145    1.36313063768870
H          -1.11382205910714   -0.06666498416395    2.04475483663310
H          -2.29409348248808    0.64622090875093    1.35709220565171
N           0.43505552770241    1.96416982118060    0.29906553581938
H          -1.02389901837376    1.70658364912348   -0.13920451322886
H           0.73073079520606    1.09536723865938    0.73474190274611
H           1.06081532602951    2.10586375559851   -0.49813127433109
H           0.60488552417577    2.71518010867281    0.95688000875896
