    26
        -50.46742637  Gyration_radius:  2.40228811018 Dipole_moment: 4.784
 S          -0.63303274927166   -0.15518170181967    1.59443231046071
O           0.85569427624834   -0.44189765586413    1.16281808445507
O          -1.43653555153227   -0.20414095776165    0.37305791852391
O          -0.92542634988694   -1.29207210536515    2.46394727119892
O          -0.68655951384154    1.13910543334160    2.22933180464752
H          -0.45977430937723    2.34718369562085    1.18973794286155
O           0.71746389812299    0.27396039867338   -2.45866155798221
H           0.82858801583448    0.39156285649612   -3.40265111872537
O          -0.21680366409808    3.04128750478465    0.52173595561812
H          -0.15526478526124    3.86249940316258    1.01193043030084
O          -0.36492226740770   -1.96621891518889   -1.19659691210892
H           0.22644190415623   -1.38002343017778   -1.69863120773172
H          -0.93402722698872   -1.33486551587889   -0.69221194778950
O           1.83943226071666    1.45125702968950   -0.25487545906806
H           1.20286749282826    2.16921421955247   -0.07209753763752
H           1.27264919357982    0.32920806552056    0.66196177319848
H           1.60507255327650    1.08249724580566   -1.12592427380449
O          -1.35345356491650    1.60771684923500   -1.56701833410198
H          -0.11006551420382    0.77605141463089   -2.21075805639394
H          -1.59282412933299    0.94451956714213   -0.88825568950838
H          -1.05346570853656    2.36818853166325   -1.04899082761509
N           0.28730906931512   -3.04202289737483    1.08277844778545
H           1.27173343157293   -2.93068588380355    1.30837994821027
H          -0.27719404848073   -2.34954849735580    1.73588134984004
H           0.10857996803068   -2.68417346814937    0.07945312522048
H          -0.01648269054506   -4.00342120657715    1.20122657014465
