    26
        -50.45335436  Gyration_radius:  2.50733862321 Dipole_moment: 8.548
 S          -0.65007247750734    1.10716755611304    2.10616444893044
O           0.72489984640533    0.54566305522454    2.13735830341830
O          -1.45576968620998    0.28273740994399    1.17303375351582
O          -1.23139145225892    1.25122436679289    3.39404381982184
O          -0.52986782378695    2.51747999587482    1.44446940881555
H          -0.26438034945510    2.40125298066478    0.50380726270429
O           1.59284682821883   -1.78340240907296   -0.88227421802057
H           2.43907679877950   -2.20514727622732   -1.03490114157564
O           0.05714234696643    2.26120128860228   -1.14404785712005
H          -0.14887448341322    3.10721054941018   -1.54420606829839
O          -0.81572207288588   -1.75976856239463   -2.21081019150225
H           0.07557872889357   -1.78434258370747   -1.82279664617873
H          -0.71348824975023   -1.87955165952201   -3.15584520443341
O          -1.92326072292662    0.63779300654874   -1.42007849058745
H          -1.64221705258515   -0.23217964238193   -1.75647358773003
H          -1.98134605977790    0.52504763295850   -0.45042892176037
H          -0.71315632821921    1.64801334614664   -1.35873807884423
O           2.03914121247094    0.64262354705633   -0.15210519505225
H           1.51455117649031    1.27939414832449   -0.66031244326850
H           1.67010442328966    0.68323507494420    0.75992138668445
H           1.79942212786104   -0.81929309495685   -0.65880354551300
N           0.03596803909570   -1.75056190784960    1.34564855956056
H          -0.81347195934490   -1.14148520252810    1.11728233656537
H           0.56188749178868   -2.00024403774646    0.48532440617819
H           0.56584451494292   -0.97932397191059    1.86714826099791
H          -0.19344482708166   -2.55474360030724    1.91761965269280
