    26
        -50.45335453  Gyration_radius:  2.50793121673 Dipole_moment: 8.505
 S          -2.21585303508229    0.81604199611574   -0.71211720374747
O          -1.25682300378790    1.38705904228439    0.26515817222345
O          -2.13897242618024   -0.66394379324561   -0.61237418475160
O          -3.53617105965854    1.32378302953980   -0.58466749401824
O          -1.66494111141735    1.18713895814388   -2.12613590026741
H          -0.70710030325854    0.96228839472779   -2.15896550246018
O           1.08904232465919   -2.00046053700568    1.14144773318800
H           1.30776354276366   -2.92429507984184    1.26840490853284
O           0.95881118088702    0.72624414160811   -2.23058137162107
H           1.27889003734063    1.21189873312840   -2.99214157104693
O           2.32559889198748    0.37496312877949    1.77160820116939
H           1.96907124913551   -0.50223132757685    1.55029722080870
H           3.28057950967916    0.29993065469000    1.76097568277054
O           0.19382330571273   -1.72253665659998   -1.25414335568824
H           0.62488419588371   -0.99362452323169   -1.72502722146953
H           0.80110419663970   -1.91309991299758    0.17619277444892
H          -0.73468655203733   -1.42229047393636   -1.12154412710833
O           1.27570343463267    2.11771986065051   -0.08707037317709
H           0.31716873295541    2.07030322508704    0.10070587479198
H           1.69670297420437    1.60347004496991    0.62543458180708
H           1.18694720313370    1.28115143229125   -1.42080789788064
N          -1.20411252268939   -0.66844332671251    1.73363530880932
H          -1.06489083532593    0.34147825474009    1.40621550640634
H          -1.72015072788068   -0.73782875518393    2.60271052157783
H          -1.75973508060576   -0.97011360926950    0.86976782537919
H          -0.30265412169035   -1.18460291115405    1.75302189132218
