    26
        -50.45335409  Gyration_radius:  2.5070547872 Dipole_moment: 8.551
 S           0.76065702177005   -1.85936690088579   -1.43188427967238
O           0.44081136673081   -0.45425880540677   -1.78287153749285
O          -0.17956292191982   -2.28612051366689   -0.36374459289596
O           0.78683017342898   -2.73875537352789   -2.54689309702074
O           2.17905356563949   -1.82989289052813   -0.77730136330019
H           2.19757791974700   -1.11526927934510   -0.10061929321745
O          -1.93649754580552    0.65446083723118    1.52279284389338
H          -2.54865318397782    0.55903036453659    2.25314954349303
O           2.33268045158277    0.17636433131825    0.97220881578226
H           3.26799010006812    0.31526344125906    1.12739633700714
O          -0.90849357998110    2.79185427259964    0.12963463276117
H          -1.28002958785257    2.09406482839586    0.69571710546446
H          -0.84392651170198    3.58316449811477    0.66595917336742
O           0.02225938667128   -0.96606793656802    1.91539447427549
H          -0.03047404790855   -1.58510984559087    1.15144519561415
H           0.88133215529413   -0.52796221673837    1.82076949895341
H          -1.15213436106253    0.05349301737070    1.73717097040492
O           1.47726768301169    1.80217845296141   -0.83288880221560
H           0.65840845865204    2.25497981967489   -0.56173578342699
H           2.04020999346428    0.89256846028428    0.32648723696242
H           1.17836633057528    1.05162122443891   -1.38392425953509
N          -1.93051322417923   -0.55233764839418   -0.91302952822078
H          -2.12951886846426    0.02659007808423   -0.07382716341619
H          -2.73487078858069   -0.66134072867075   -1.51929959433866
H          -1.06057578085827   -0.20209524839928   -1.42821356000858
H          -1.48819421434368   -1.47705624854778   -0.60189298321796
