    26
        -50.45335410  Gyration_radius:  2.50705695191 Dipole_moment: 8.551
 S           2.28421375610924   -0.89557666580577    0.25785220308944
O           1.96155010177608    0.18143055175227    1.22893275668606
O           1.48752501680885   -0.65324766692942   -0.96950524935290
O           3.67651201746997   -1.04380277979059    0.01954561780269
O           1.73305791774770   -2.21988839600133    0.87721386389223
H           0.75048915192429   -2.16797238009912    0.90549069651555
O          -0.93308075436970   -2.19392211335869    0.85653765910178
H          -1.20318960934749   -3.10480169386149    0.98112612763568
O          -1.36340792470230    2.09925359843906    0.48107979264469
H          -1.73288297999636    2.80095939700792    1.01807021821858
O          -2.11093694070509    0.85695709836001   -1.85644583146021
H          -3.06123758596365    0.84367136810243   -1.97778475812808
H          -1.93794151159497    1.31228202751551   -1.01492446747560
O          -0.89753722995178   -1.60951563851462   -1.65156039760979
H          -1.02191532224708   -2.00120050212983   -0.12856272959538
H          -1.35941307008858   -0.77289098651565   -1.84079234135080
H           0.04797353364061   -1.36668845394061   -1.59359546375452
O          -0.54483134652320    0.24155626995629    2.06090146865638
H          -1.10923614959930    1.36156162613267    1.12415939637795
H          -0.86833580021359   -0.63185961287240    1.79372113100930
H           0.42627040861487    0.21043457024059    1.90087001553142
N           1.14766355062173    1.81073430575224   -0.51935883493398
H           1.16697860430842    0.87512636589176   -1.03816366027362
H           1.68448900734827    2.53394399988080   -0.98328499846423
H           0.17397804723863    2.10190428418630   -0.30447007472635
H           1.60324510169462    1.43155141660210    0.37294785996366
