    26
        -50.46445945  Gyration_radius:  2.39234902232 Dipole_moment: 4.515
 S           1.27330364707873    0.55029267475478   -0.95916342250751
O          -0.13986230995763    0.90374050913734   -0.87081541776471
O           1.55228725929734   -0.70731813457308   -0.27051046824119
O           1.68291383652988    0.50786910360344   -2.35777886907232
O           2.08982449818228    1.67073549085562   -0.24820735069634
H           1.72866391152333    1.73338159285428    0.67255344478663
O           0.96298315585016    1.83788472554677    2.14213030215378
H           1.07665876768280    2.72432397724771    2.48931286843212
O          -1.68095502215642   -1.31308046105457    1.43763123059367
H          -2.09076988121210   -2.02293119280056    1.93392536845010
O          -0.60040210954326   -2.01900003700169   -0.99374167302545
H           0.29009636085083   -1.70792519006538   -0.71129288589998
H          -1.17735810922225   -1.74906246593521   -0.25084902658099
O           0.80131969223084   -0.98222721129643    2.25406573190937
H           0.95504531961960   -0.08709967475458    2.57909933594537
H          -0.75476371136545   -1.22922035771139    1.79468827744182
H           1.20295375215997   -0.98799409597922    1.35972562245100
O          -1.47406583667440    1.48219335175808    1.30669706396032
H          -1.09151805768719    1.37152462884604    0.40887868993073
H          -1.79384754032775    0.59409323978115    1.52374847907610
H          -0.00891203721606    1.75046754007360    1.90363517184447
N          -0.58280933923518   -0.47297544513206   -3.07254239950524
H          -1.22927496364853    0.29804452978443   -2.92097058941811
H          -0.69964359342908   -1.17370609909035   -2.24175997277210
H          -0.70458293834735   -0.90637274142782   -3.98262731499567
H           0.41271522901988   -0.06563824742368   -2.92583220649670
