    26
        -50.45260130  Gyration_radius:  2.49745452381 Dipole_moment: 5.354
 S           1.59490583783054    0.98819393456603    1.33392999596562
O           2.11436749675102   -0.25948826272187    0.71871965315214
O           0.13391640756581    0.82324163850320    1.52583304103820
O           2.28173767766823    1.35316038350912    2.52420242047923
O           1.77359493778692    2.12013275525240    0.27346259500395
H           1.25869871587703    1.87741706914593   -0.52800504589807
O          -1.15872217384812   -2.25306477621594   -0.21543620343852
H          -1.83731152571049   -2.85310346781016   -0.52545423172507
O           0.52036299044735    1.44088246884297   -1.98178921265923
H           1.07625784065151    1.72791193736714   -2.70847889360103
O          -2.17020851330094    1.83758039405537   -1.71858209450286
H          -2.28848232086401    2.71946500312838   -1.36190508461975
H          -1.21800665431974    1.74008423826608   -1.90336984766058
O          -2.14975180492834    0.05899420598309    0.32107359679208
H          -1.40290932527719    0.47213703273963    0.79452061107288
H          -2.30866356525745    0.63285677087930   -0.45577512023194
H          -1.61286269195626   -1.36363552348856   -0.06270794858239
O           1.00305850287641   -1.04963892949517   -1.53816195908969
H           1.54043836619830   -0.82194540508984   -0.74571862822903
H           0.24437594175735   -1.55681397088605   -1.20906859948213
H           0.65044759304706    0.44616976243221   -1.90637538433840
N           0.37866941646282   -1.67266311853319    1.90786850686933
H           0.46540998014383   -2.17158013448986    2.78551032852828
H           0.02003514119438   -0.66910329831337    2.00720058140861
H           1.30938715675645   -1.40694688849005    1.46123850947120
H          -0.21874539754276   -2.16024383906556    1.20726842430353
