    26
        -50.45260130  Gyration_radius:  2.49745539053 Dipole_moment: 5.354
 S           1.41510217023172    1.73096880593346    0.54845628422726
O           0.05636314948821    1.95833951179440    1.10266824908876
O           1.26718948374624    0.95764566021094   -0.70797598798741
O           2.16149881759310    2.93036039811328    0.38711778389198
O           2.15989935803526    0.79709627098985    1.55392510828444
H           1.65826709714142   -0.04546109671842    1.62349174435485
O          -2.24561059544864   -0.32003600760338   -1.14898819723379
H          -2.93664341996715   -0.82632704918011   -1.57653734763748
O           0.75890680552151   -1.44715929569095    1.89852746164484
H           0.82140087745557   -1.67650572135283    2.82749087062393
O           1.12222101769450   -3.11875172516147   -0.23208723789201
H           1.00535736569051   -2.60358426486391    0.58723763380781
H           2.06681017556649   -3.17269088733493   -0.38626997920862
O           0.08067715409570   -1.18935184866594   -1.81850945897425
H           0.37381617925976   -1.99569589386361   -1.34739785104878
H          -1.37024434984119   -0.74018053867119   -1.42804724593044
H           0.64855791736311   -0.47336231907923   -1.47573962278546
O          -1.44520879934323   -0.16550308942288    1.53556248896397
H          -0.95987259737020    0.68924364758968    1.48599305766911
H          -1.84923012208839   -0.29366743867332    0.66294604312927
H          -0.15578385316808   -1.04857977691808    1.76995874594715
N          -0.97000633344188    2.04165110942427   -1.21325331487866
H           0.00013501940770    1.61597049266740   -1.36583888911470
H          -0.82592348026142    2.26158926696857   -0.18023280935841
H          -1.16285457439933    2.85300948670992   -1.78875611413778
H          -1.67482445294203    1.28098228280358   -1.31374141544519
