    26
        -50.46555177  Gyration_radius:  2.45680739113 Dipole_moment: 6.213
 S           1.62651181090462    1.41178629653072    0.68906789248520
O           1.29168167309700    1.89802895864623   -0.63153158844129
O           0.74119158245006    1.95053787681017    1.71144659421341
O           1.72178843639660   -0.03812871247742    0.76149577210830
O           3.07792571162487    1.95764727930862    1.01221889091064
H           2.96693685774880    2.86782180705228    0.76288721792280
O          -2.18912386806366    0.00479647610922   -1.02975380865852
H          -2.98246865284621    0.41814009558029   -1.37240555406886
H          -1.96670022407834    0.46994940596269   -0.19063939438977
O          -0.27784956469284   -1.18630574399133    2.04910116667567
H           0.56957237068850   -0.78644705773491    1.74938865681790
H          -0.89271612536351   -0.43988473237141    2.09684587758201
O           1.47560377852429   -1.60637196637162   -1.37013925858372
H           0.19629472093807   -2.09525261325976   -0.79546338553397
H           1.79000545087664   -1.07763393067453   -0.60646618419623
O          -1.64083031042439    1.15045876126347    1.32392487893709
H          -0.70475622083261    1.49469418357591    1.43728084369941
H          -2.20447027246830    1.82201537576020    1.71173570609150
O           0.21148751613241    0.39299166165900   -2.53229714247038
H           0.65426499142212    1.04324668976167   -1.94840329262131
H           1.13450487428498   -0.92720002341079   -2.00435846160075
H          -0.68028840941180    0.30337282016777   -2.16932082010791
N          -0.77030446642376   -2.25457551697967   -0.29596316187240
H          -0.61932980777737   -1.94742084051823    0.71742033212166
H          -1.07748406021176   -3.21763408950756   -0.35975998256618
H          -1.45144777249780   -1.60863244091743   -0.71631180445020
