    26
        -50.46185015  Gyration_radius:  2.40102033068 Dipole_moment: 4.321
 S           1.81194865871440    0.17810223452771   -0.02642217881586
O           1.30451759199053    1.52156101586789   -0.27271950461163
O           1.26730477019563   -0.35920169269942    1.21778864567642
O           1.62395931196954   -0.70563567197874   -1.15016106661319
O           3.36710117015726    0.31517350658405    0.19985098859722
H           3.40004917455119    0.89027188368068    0.95624294134337
O          -1.32804851400135    0.14427800429476    1.31827513171689
H          -1.40249582232760    1.13183076120427    1.21384961369487
H          -0.36116679521534   -0.02472050464439    1.37639724178022
O          -1.83804006517211   -0.69824426419081   -0.97391338104489
H          -1.34475473459051   -0.00975017311270   -1.54445500999530
H          -1.71882678893856   -0.36192946534898    0.03004626641439
O          -0.31566323084019    0.92716359501197   -2.24278162621765
H           0.28489669425188    1.25597482387717   -1.53350192502622
H           0.24381899462748    0.35663964247754   -2.77850077911579
O           0.13095452678349   -2.76338074310061    1.58867197927513
H          -0.63128102201584   -2.52164997695119    2.11965019494589
H           0.69179447528493   -1.96468204766484    1.54906975154825
O          -0.22116624512033   -2.58763730128914   -1.03852379647189
H           0.57504924142807   -2.03175265763769   -1.18968238477228
H          -0.13584986140935   -2.88838746728166   -0.10390604477738
H          -1.23656488465015   -1.58584432453598   -1.04236703764639
N          -1.14963270012488    2.72135067509290    0.69698371284097
H          -1.69236889846850    3.01913217206440   -0.10400532681842
H          -0.19748148566576    2.55598546515988    0.37431763893648
H          -1.12805357145468    3.48535251079411    1.35979596517538
