    26
        -50.46184992  Gyration_radius:  2.40105371439 Dipole_moment: 4.325
 S          -0.13505039776110    1.69435073972103   -0.65302099105099
O           0.04902807752267    1.86492194526887    0.78227179205967
O           0.95232758235830    0.90256480134352   -1.22224703331153
O          -1.43989204186152    1.18346495099246   -0.99294756068886
O          -0.01659422052376    3.12879903112862   -1.29860848931329
H           0.86281337975282    3.38207038204817   -1.04080231481576
O           1.41790145699522   -1.18348012071152    0.33684051725105
H           1.60025783498360   -0.79678864666231    1.23634847761130
H           1.34114764542221   -0.40259107867727   -0.25578521311244
O           0.73611030766528   -1.21692439997631   -2.85630348878852
H           1.37855497986658   -1.81240019456863   -2.46368229604700
H           0.87189977293186   -0.35387599303638   -2.41957063843146
O          -1.85800936569443    0.25281391818194    1.57241407173772
H          -2.57868109664307    0.51888102352157    0.99339853526082
H          -1.14095804457566    0.90062541569538    1.37747880937217
O          -0.96446500006103   -1.90303778987302    0.51245944949087
H          -1.36098513900477   -1.12300273152638    1.03899811720878
H           0.07885770097356   -1.69543145333867    0.45439622848687
O          -1.69566144180317   -1.31741862855474   -1.79181028450267
H          -1.75504729082146   -0.34919340286578   -1.63420486035501
H          -0.89353676515263   -1.42518559075608   -2.35414310106684
H          -1.33065741540627   -1.76662462210075   -0.48839992472613
N           1.52724123523206    0.17596843787794    2.61709153495999
H           2.37233942292898    0.50789535170848    3.06345723157911
H           0.89180862802105   -0.13095914295433    3.34294844475728
H           1.08925020466819    0.96455782813396    2.14342298643315
