    26
        -50.46009907  Gyration_radius:  2.46572484491 Dipole_moment: 0.829
 S           0.88806812618888    0.70090227456438    0.70079895146543
O           1.30758835510673   -0.49679871352628   -0.01922568469949
O           0.59970170200616    1.79618102365225   -0.21155996127163
O          -0.25735216687963    0.40793788941594    1.56296848489064
O           2.04209435076172    1.12882692263726    1.64877938152178
H           2.76619182485148    1.29694218939746    0.99309957406136
O          -1.07151033663263   -2.03685294413138    2.09047837049318
H          -0.52359752188015   -2.46455467727838    2.74954323676282
H          -0.71717690830853   -1.12169557010923    1.99310164276803
O          -0.46141519620980   -2.31860289201265   -0.49415836888175
H          -0.76452562305691   -2.45386873538406    0.43194704619736
H           0.30663904125798   -1.69195711299141   -0.40134199816225
O          -0.76782906940137    1.15205609262075   -2.28719438164632
H          -1.27561289295526    1.94404825202127   -2.47612443377899
H          -0.18688679955745    1.38483221339775   -1.50853391305557
O          -2.76377641158760    0.23984267450757    0.84145293551883
H          -3.03636166727347   -0.44389820387015    1.46044700578586
H          -1.85178854247342    0.49062146382566    1.12579302633806
O          -2.16508595538978   -0.78357055381331   -1.41151577291986
H          -2.51957913801487   -0.37011812838237   -0.54085529729209
H          -1.61950752392950   -0.03835301417542   -1.85968433588346
H          -1.42745214654360   -1.53382183244200   -1.07854556240272
N           3.40092538127753    1.33496010306450   -0.56245116440286
H           4.30940848442666    1.43836326980821   -0.99731316368250
H           2.76559395895475    2.01778971787091   -0.95859682909915
H           3.02324667513092    0.42078826137782   -0.79130877860385
