    26
        -50.46009884  Gyration_radius:  2.46699676875 Dipole_moment: 0.810
 S           0.11131470890962    0.83884492215881    1.02312944200894
O           1.51919455935461    0.47681985969991    1.06470788815876
O          -0.27215975460875    1.34317832829889   -0.29116746255406
O          -0.74134284713951   -0.28533162831275    1.41124723439539
O          -0.15003732112099    1.95763839110120    2.06906775403807
H           0.45050506872264    2.66984841861548    1.73072534851814
O          -0.55824596642688   -2.78024954536488    0.65289537818863
H          -1.49751216116980   -2.98670679382261    0.64265358846984
H          -0.49909926684222   -1.88879989112524    1.07335840595821
O           2.33916341448644   -0.88054486350425   -0.95583873807894
H           2.02941221774430   -0.30358506501214   -0.20168603666531
H           3.01598460652618   -1.45005323622811   -0.58411345349141
O          -1.41011814994479   -0.28967989701340   -1.93732613732453
H          -2.14819597344041   -0.57414366863166   -1.35274844495265
H          -0.96092236492036    0.43007425294081   -1.41610340695026
O          -2.96448432356317   -0.89918207093426    0.14795132856083
H          -3.68567433879947   -0.31366640793162    0.38160735124844
H          -2.19564699812984   -0.61836028799805    0.69806178384401
O           0.23371489874118   -2.11397621633877   -1.67328165386741
H           1.11847875257304   -1.63200025181968   -1.47871346006350
H          -0.06737515780101   -2.49674087412521   -0.76930515194698
H          -0.49844141233678   -1.31703245382308   -1.89202372900643
N           1.55507107758221    3.30250683128643    0.63345386414350
H           1.01109130375208    2.99826151563609   -0.16788193164009
H           2.28711451142895    2.61384680675490    0.76356275471433
H           1.97821091627846    4.19903381547567    0.42776750424202
