    26
        -50.46009914  Gyration_radius:  2.46601248098 Dipole_moment: 0.824
 S           1.03669405140245   -0.00288367970706    0.83380470425420
O           1.15742103970744    0.62772183315807   -0.47652477196243
O           0.19824615987801    0.78155309558873    1.72632602119317
O           0.54070032326342   -1.37311043453954    0.70131284406338
O           2.45743022496492   -0.11687526748753    1.45210739399372
H           2.71544548543436    0.83906739182698    1.49691216225865
O          -1.94142546958262   -2.12246384620283    0.36868455806749
H          -1.77675610810254   -2.89220801626870   -0.18389686855140
H          -1.04852392668865   -1.83782757874099    0.68017072354924
O           0.39610977645842   -2.63671864097971   -1.60084894035186
H           0.54417577272407   -2.22150677163048   -0.71875119588593
H           1.24920034203702   -2.96686945353494   -1.88499706998307
O          -0.38539128081675   -0.20292626823709   -2.37421274724287
H           0.24452952032567    0.22535582227144   -1.73291445510343
H          -0.15037469233385   -1.15716027245886   -2.32958824401033
O          -1.96241149964556    1.68712207707642    0.67487911746046
H          -1.09330436717996    1.38205298095453    1.06147237537181
H          -2.58020705629808    1.70272048654951    1.40891955395534
O          -2.47880173918462   -0.09056959205617   -1.06888137685210
H          -2.37826676371221   -0.93761343497252   -0.49743122965303
H          -2.33091214621836    0.69027160694771   -0.41955063747447
H          -1.59487796711512   -0.09943314285075   -1.73084050093187
N           2.45011142851405    2.47813805760009    1.23704016049625
H           1.63167765365170    2.58741212781848    1.82442669390164
H           2.11072694802386    2.32159936325343    0.29305504977458
H           2.98878424888644    3.33515155549839    1.25932668879588
