    26
        -50.45289437  Gyration_radius:  2.64827598074 Dipole_moment: 2.981
 S           0.37877828018653    0.67230810622149   -0.26186852664141
O           1.57185616608204    1.42701615470888    0.03593716928275
O          -0.34823299073881    0.34958776363456    1.03935681734173
O          -0.54614856760272    1.28727631629676   -1.16585247601824
O           0.79892720316224   -0.70320882376849   -0.81542471901025
O          -2.52025239788382   -2.08347116175414   -2.27217385501494
H          -2.33339777867209   -2.91375251022352   -1.83156526321288
H          -2.76657525455852   -1.43028437437679   -1.56182887970798
O           3.05901837614256   -0.68415267617128    0.84580762835408
H           2.77671330115393    0.16327707951459    0.46115285113970
H           2.74845057559889   -1.35739943250185    0.23501480662248
O           1.89471603965108    2.43625442494528    2.53580855660136
H           1.35759767332174    3.22194883733890    2.64549755931815
H           1.89412335342086    2.22750116940005    1.58428162243033
O           1.32960929464351   -0.16990826864230    2.79078327158224
H           0.33560194547951    0.08307000855629    1.82159893741663
H           2.07567116960112   -0.51717925278497    2.24513170063486
H           1.59013316053859    0.74825220799901    3.01362237608405
O          -0.38024175120255   -0.74872020348778   -3.00823234287979
H          -0.67569401498963    0.16707523934282   -2.92609821171883
H           0.36014351782781   -0.80808337380105   -1.75658936084368
H          -1.19036366421467   -1.31083566091862   -2.86629516543249
N          -2.87239961402818   -0.23389173731729   -0.37338175405852
H          -3.75613227117596    0.25742345444570   -0.31389480812552
H          -2.16577107670192    0.43897482800836   -0.66537612829894
H          -2.61613066503717   -0.51907809466003    0.56458821415409
