    26
        -50.46009920  Gyration_radius:  2.4665176496 Dipole_moment: 0.819
 S          -0.34417833451074    0.26900123864196    1.25458967031878
O          -0.29203766181989    1.34164069035561    0.26678141456117
O          -1.49117662565685   -0.59829159457558    1.03794301997039
O           0.90728704636539   -0.48936508665100    1.25640382418522
O          -0.46017852950995    0.91079389315047    2.66474372476085
H          -1.31545112290062    1.40338980314102    2.57278470692324
O           1.25910667506040    1.04223157715955   -1.77675399242982
H           2.09283888622429    0.86352571580629   -1.28601346548094
H           0.60838139129533    1.27339275672544   -1.05946794514084
O           1.63491494673701   -2.36703995769733   -0.41024654199398
H           1.27184909439693   -1.80029665393043    0.31236780797046
H           2.57793606991339   -2.17849387914831   -0.42198835155402
O           3.08701162938099    0.33280043117233    0.03645671334603
H           3.54186211292263    1.01510064065819    0.53160085808986
H           2.31620697496669    0.06240147214462    0.58908968006817
O          -1.88493721621231   -1.27035070072713   -1.40929823401578
H          -2.25921543592798   -2.15138788845867   -1.34255658728463
H          -1.76185178723920   -0.95869456225068   -0.46829384988925
O           0.47144185317908   -1.22349553169764   -2.36491228530696
H          -0.51323963514630   -1.23260064521008   -2.07582112548370
H           0.82061850142633   -0.18896864589811   -2.20245397516746
H           0.96500401493971   -1.77451632208615   -1.65268793005870
N          -2.65991446953031    1.92495914503794    1.71050379918907
H          -3.06399354287420    1.01706411970165    1.51227807907132
H          -2.10249805815213    2.17712961673779    0.90027433707126
H          -3.40578675735994    2.60007036786942    1.82467663827913
