    26
        -50.45289437  Gyration_radius:  2.64826136796 Dipole_moment: 2.980
 S          -0.08550959864669   -0.58262503416226    0.56301287786410
O          -1.00175695913955   -0.94038367539890    1.61853369943252
O           0.24923072222316    0.90131166339413    0.67112795330097
O           1.13631509035525   -1.32775275733410    0.51032724421676
O          -0.82224774856950   -0.71028644376314   -0.78448839933842
O          -1.42592881438213    0.82204808271371    3.63979235855740
H          -0.69190001075945    0.79996733654541    4.25507075602210
H          -1.32109404447884    0.05273620647635    3.05141535303619
O           2.07335510567662   -0.52947710465096   -3.35829826983563
H           1.55085944714892    0.09977603189342   -3.85774756645014
H           2.38543743744538   -0.05737795042742   -2.53877087464906
O          -3.21439404850363    0.08538217857089    0.44531121205094
H          -3.03459138144508   -0.12527027836465   -0.47452964245699
H          -2.60747025114728   -0.47247916282129    0.96127782238971
O           0.65318684557241   -2.28971715814563   -2.02115818773246
H           1.21017747705886   -2.45371362240993   -1.24941043352452
H          -0.27927090063563   -1.37788982026380   -1.37505031268674
H           1.19699113725856   -1.72453200953895   -2.63532949653688
O          -1.79358233513106    2.14060977931637    1.33707812072643
H          -0.61357259447403    1.48653100015771    0.92365702802178
H          -2.50032656064249    1.55873194493206    0.96719967501733
H          -1.77761480239345    1.93499952741069    2.29518956718258
N           2.65727556293099    0.60466036894417   -1.00818051534956
H           2.15677114060948    1.46120491404282   -0.80184676194338
H           3.62648514586357    0.74602136202436   -0.75028178769589
H           2.27317491820090   -0.10247537913442   -0.38390140962925
