    26
        -50.45882336  Gyration_radius:  2.49450898732 Dipole_moment: 4.332
 S           0.91609581792563   -1.44232046224054   -1.27756046735888
O           1.58915645629926   -0.76616163166558   -0.17654367936122
O           0.12847847936137   -2.56463040871721   -0.80847660894741
O           0.18181931699268   -0.52583150273884   -2.12688184487718
O           2.06229265120544   -2.04464647233158   -2.18778920744334
H           2.45788723278408   -2.66591690620265   -1.58701182367061
O          -1.57259984724195   -1.82686536997719    0.99485522571634
H          -0.88198064744778   -2.13571030701452    0.35146268359705
H          -2.27321822571488   -2.47997882941110    0.94735324800805
O          -1.80124762928547    0.42922201556988   -0.59042212092078
H          -1.20661365213295    0.07451091732327   -1.27692273971504
H          -1.87984714431877   -0.28443898528310    0.06256412165635
O           1.08386864225510    1.94829018977070   -2.33507384316610
H           0.82695458819216    2.23635917346894   -3.21235767291043
H           0.84459415113338    0.99681962693639   -2.28304054662629
O          -0.28329457141112    2.54892510208974   -0.13624254225318
H          -0.99863788514890    1.88127170631405   -0.27698809082963
H           0.24073614592430    2.52838342746754   -0.97073871123020
O           1.15993980912798    1.19279644850327    1.35648532880177
H           0.47735382046634    0.75968013577823    2.03549636292753
H           1.41752886446297    0.43678883073654    0.72999188880839
H           0.57634124925715    1.86351432931878    0.74737145836102
N          -0.57223333017377    0.09392840405855    2.88049104509889
H          -0.92744491663323   -0.66658098854091    2.29965880802767
H          -1.34347485310357    0.71269636169056    3.09645939032216
H          -0.22245456277470   -0.30010482489807    3.74386031798418
