    26
        -50.46049286  Gyration_radius:  2.43446799593 Dipole_moment: 2.656
 S          -0.20677165345526    0.63825197824643    1.73370019914838
O          -1.35845037080528    0.45022230305291    0.86363925647840
O          -0.26982369303361   -0.13803520091207    2.94734326031048
O           1.04034708794391    0.50933068733197    1.00175615982929
O          -0.26832622120089    2.16245621505174    2.21704763838612
H          -0.50048190299330    2.06856959886679    3.13535640229483
O           1.93199268895351   -0.75595464027726   -1.09920923735766
H           2.87775304243802   -0.86139223866532   -0.98907003280531
H           1.61544709701557   -0.28759906471850   -0.28915550399422
O          -0.05499722636109   -2.59723799457678   -0.87503627921390
H          -0.13042833761253   -2.67022152093044    0.10245837264097
H           0.78977905868979   -2.13667555259100   -1.03644240406178
O           0.15059752907389    0.71501357721518   -2.60386408505012
H           0.93859207353949    0.22376095276657   -2.31506008624618
H           0.11993883137466    1.52811896081539   -2.02343380391669
O          -0.30749560419673   -2.49605501828727    1.77594299980094
H          -1.07220326074547   -2.92582491530809    2.16419605201534
H          -0.22175818752868   -1.63568205281069    2.23730225361396
O          -1.55221732970115   -0.65947901966969   -1.40066171879211
H          -1.01602581128411   -1.55340234793758   -1.23629977187286
H          -1.55431624200369   -0.19746588607845   -0.49210479442250
H          -0.90564076330395   -0.06815155432968   -2.01023683791868
N           0.01047050144845    2.55982535047922   -0.71017521953124
H           0.48650805014743    2.00431736976737   -0.00376042032886
H          -0.95122298814638    2.63293681627403   -0.40042752591658
H           0.40873363174892    3.49037318722243   -0.69380486308660
