    26
        -50.45882336  Gyration_radius:  2.49450349151 Dipole_moment: 4.332
 S           1.88955362160435    0.82623277091646   -0.54638637894802
O           1.56759075708914    0.29831466069269    0.77272814690880
O           2.24343313347831   -0.23316568474803   -1.46963402911230
O           0.86987961639390    1.72500566384773   -1.04930744908959
O           3.18705150831375    1.71297023363181   -0.35848033523874
H           3.81443962488961    1.05366266050832   -0.08449504007345
O           0.36808900003268   -2.00788620466683   -1.62252247506748
H           0.48425451378392   -2.40799522640441   -2.48629299751249
H           1.12240710885750   -1.36920064024140   -1.52567055487971
O          -1.29971045302237    0.19155874062607   -1.43249643698957
H          -0.88516778414525   -0.67924997559069   -1.54079053600841
H          -0.55818078132139    0.82443804261294   -1.44959957109357
O          -2.16808945787789    1.01806073291047    0.92678576325475
H          -2.03382648849202    0.69064095478524    0.00370724854255
H          -1.70925011720307    1.89007844322292    0.94820502851939
O          -0.53291443253369    3.10279059060131    0.71485111713773
H           0.07412016139392    2.62714916955514    0.10614522495329
H          -0.76934314435423    3.91671418137078    0.26736831950701
O          -0.48870314852423   -0.42225104219669    2.04722325110806
H           0.36436910367697   -0.08821151517366    1.61010158914954
H          -1.26408939197512    0.21181909006551    1.64944190747786
H          -0.65471899821763   -1.37422407846756    1.62208600458654
N          -0.87776178798208   -2.66235215372717    0.88053048500086
H          -0.50007807304158   -3.47884128784289    1.34282891205155
H          -0.38750072532695   -2.53826345421297   -0.00612488915703
H          -1.85585335549495   -2.82779467207428    0.67979771497276
