    26
        -50.45852418  Gyration_radius:  2.50872947355 Dipole_moment: 1.947
 S           1.13988887980834    0.28484167031524    0.79572415455576
O           1.02209264983639    0.93457559711919   -0.52014202331498
O           0.12551151312993    0.79721824199126    1.70684784612535
O           1.06633630089301   -1.16231461447392    0.66594873954861
O           2.54119133695931    0.62704219460119    1.35333499039238
H           2.48413961395749    1.62003557302295    1.43130105047080
O          -1.24329196807169   -2.37612223410218    1.09613790357325
H          -0.35408560299188   -1.95932513719549    1.03027855337408
H          -1.32569544688848   -2.68415114460576    1.99985764150258
O           0.29619664066446   -2.64721189744560   -1.42658160837160
H          -0.34957974959880   -3.13318088935277   -0.90319269318620
H           0.77144146057653   -2.09133851480901   -0.77775080013097
O          -1.02052596821565   -1.05901394822341   -3.02788674748799
H          -0.44174806905268   -0.86200754576334   -3.76635903329346
H          -0.53019400766936   -1.71540366484515   -2.45833809421626
O          -2.20403321246208    0.11398271210197    0.72330094147990
H          -1.43863670852344    0.45963960689543    1.24189250453276
H          -2.10661477466402   -0.85954899795978    0.77807250342700
O          -1.27157157471189    0.91668206740433   -1.45194696943893
H          -1.80051626186481    0.58951606856555   -0.59628066543945
H          -0.27897584637855    0.99691374894754   -1.09613859242387
H          -1.25027984100822    0.13989667959426   -2.12854388269047
N           1.74291876912439    3.10052974730279    1.37107369730775
H           1.92423831097721    3.96133377605386    1.87126756239483
H           0.87066887665055    2.69743128048169    1.70080526868852
H           1.63112467951958    3.30997958437769    0.38731777262427
