    26
        -50.45882330  Gyration_radius:  2.49445784542 Dipole_moment: 4.330
 S           1.17668762402640    1.33767961449093   -1.17390255996474
O           2.18677288240486    0.36108541582397   -1.52877740940718
O          -0.15852117545455    0.87772318705160   -1.53183157133153
O           1.25838116594511    1.79197129786176    0.19993425395362
O           1.45263154004468    2.61640095914376   -2.06481372954859
H           1.43530943018601    2.23357587403778   -2.93463481997480
O          -1.66933697223736    0.34254113041624    1.92113496544618
H          -1.54066990423447    1.31383711950278    1.81409965624281
H          -0.75389012227790   -0.01967218666948    2.01090292774247
O          -0.92161357849782    2.81316302202503    1.28740370092965
H          -0.60664078791816    3.45082626383554    1.92989595039186
H          -0.12483140150182    2.50094705419859    0.80474964793594
O           1.68617742151816   -1.93687262133600   -0.45223008848201
H           1.85596169634848   -1.07939927541842   -0.92359459128175
H           2.54144097417657   -2.36645741260871   -0.39178373325816
O           0.86048648885910   -0.40099691642426    1.69592615484353
H           1.13226056094593    0.43473189160560    1.27356957275010
H           1.12907110356634   -1.09342433412696    1.07117811627443
O          -2.07629507235092   -0.33768907645462   -0.42867280490440
H          -1.99926645945901   -0.03985163277407    0.60425713331555
H          -1.36697781593612    0.20931176767664   -0.90619735030973
H          -1.72075378942740   -1.33099357942834   -0.46473978154777
N          -1.08410757859077   -2.69261182085714   -0.45724569372561
H          -0.08285996429512   -2.51005435626012   -0.53527896876335
H          -1.36171992382529   -3.28561590145395   -1.22813468528029
H          -1.24769633201671   -3.19015548386158    0.40878572795116
