    26
        -50.45363107  Gyration_radius:  2.49779917321 Dipole_moment: 2.036
 S           0.03714125912787    1.78867120449427   -0.39293961216375
O          -1.42265670380001    1.74561573014960   -0.47487888645408
O           0.48779895702750    1.27920316182582    0.89453368391526
O           0.69606118185462    1.15854040164460   -1.51086004639492
O           0.42132835568379    3.31790808649984   -0.43568521312625
H          -0.15482467317034    3.66938234769170    0.23403336341284
O           1.35670562277388   -1.26391773356543    0.63887634828634
H           2.19608002081651   -1.20951573666554    0.13822595040118
H           1.13081331434682   -0.32659928100459    0.79043514086774
O          -0.72969253337539   -0.39695569801660    2.59775732462685
H          -0.06353255917501   -1.08873673843541    2.52910402494286
H          -0.36883605838780    0.34643207198724    2.07594723499139
O          -0.13525111990918   -1.36023757640258   -1.51592160718792
H           0.22555328007043   -0.48885379065439   -1.78065027938913
H           0.36264230851923   -1.56276717932794   -0.67857461708229
O          -2.91294276930463   -1.24125069970137    1.43562741979531
H          -2.09578817228981   -0.95907541815586    1.93211064189576
H          -3.64961508387525   -0.78114656276904    1.84097685452305
O          -2.39093371518934   -0.51064036364758   -0.94154787941938
H          -1.47695042287213   -1.00418275427637   -1.22668098861809
H          -2.65765693890949   -0.86377805682369   -0.01293837811254
H          -2.08111034854138    0.46581257206129   -0.79774440481386
N           3.22375903187321   -0.35204451635897   -1.13362444756270
H           2.49486682301030    0.31488158121870   -1.38214083774950
H           3.47075866136496   -0.85656610528613   -1.97628624030470
H           4.03628228231325    0.17982107350455   -0.84715454926321
