    26
        -50.47460557  Gyration_radius:  2.38421874908 Dipole_moment: 3.137
 S           0.03355944220965    1.37284642113306    0.31710078250586
O          -0.90101625613214    0.27273242013038    0.60428887758984
O           0.73349381292651    1.12362034701082   -0.94151861762048
O          -0.80474416534352    2.66283221543357    0.15822966378040
O           0.95865306881754    1.57577402936124    1.41462240748676
H           1.73134908947573    0.25834862495614    1.74867661900852
O          -0.45516966689271   -1.30048619254467    2.69855676557929
H          -0.73210146397418   -0.75647841931749    1.92841672008581
H          -0.83246141975579   -0.87656598167564    3.47083216080253
O          -0.84898181444158    0.37905107749148   -2.87500387906846
H          -0.54467582646800    0.72709381740928   -3.71413357727667
H          -0.19371320239842    0.67663371693680   -2.19576995227705
O          -0.58756396085663   -1.83105287022216   -1.09525476245679
H          -0.79639828475812   -1.16221085106736   -0.41885578122262
H          -0.79962961793911   -1.40836129169596   -1.93713434360190
O           1.97583445508768   -1.23600434231122   -0.72096906351828
H           1.14181653139358   -1.72724146493180   -0.90587275814994
H           1.73636699622165   -0.31209959621831   -0.93391792047040
O          -2.65672919013115    1.39794997654590   -1.12810253468912
H          -1.58945575897786    2.36614024269603   -0.37736835373644
H          -2.21362644957678    1.06196080789638   -1.93101856489348
H          -2.51159245571554    0.71739084846655   -0.45661306773043
N           2.00796103280032   -0.76421383940392    1.83191336733069
H           2.86783516931110   -0.89066406054937    2.35392946663498
H           2.09169856490038   -1.10649890530468    0.81183368447842
H           1.18929136019938   -1.22049672024047    2.29313267143519
