    26
        -50.47460553  Gyration_radius:  2.38418789743 Dipole_moment: 3.138
 S           0.63545600265084    0.66182996535701    1.06944803995978
O           1.49872229975218   -0.38983417348724    0.53567383196128
O          -0.76729025812420    0.39751962969030    0.71092129388730
O           0.73251954500219    0.63163014401257    2.61278857769963
O           1.05258269780907    1.97646225444058    0.62314483225343
H           0.82891660186547    2.14403661882357   -0.91523315240739
O           0.59506808231651   -2.79398355264572    0.98366323593155
H           1.00764721948378   -1.91402945416508    0.79705559913128
H           1.31780364018689   -3.40307432058802    1.14003671241098
O          -2.01731410927642    2.05028307934451   -0.95235519164142
H          -2.36274758220558    2.78079382999218   -0.43708492892598
H          -1.66266982907867    1.40397046504246   -0.30257330586262
O           1.12404147587901   -0.47771320045845   -2.11194588585677
H           1.50608351243118   -0.49680587145528   -1.21191885150785
H           0.29187141982080   -0.99528239623645   -2.00822306719395
O          -1.02038163749326   -1.64955449904581   -1.06630470905982
H          -1.07320715001548   -0.90087076517872   -0.44574985580169
H          -0.65366991637205   -2.37722979412756   -0.54824781566651
O          -0.88925130951826   -1.37662426724289    2.75699673869177
H          -0.43470723290382   -2.09481969593425    2.27586687302770
H           0.16845873044556   -0.14814702597301    2.86673411446314
H          -1.38150137001743   -0.89196475856071    2.08024340882719
N           0.47077218528286    2.02662139598711   -1.90869289102818
H           0.87419366637556    2.70289249593697   -2.54724688665136
H          -0.56604552334371    2.12309869579415   -1.82643216193097
H           0.72464883908123    1.01079518067615   -2.17056453470227
