    26
        -50.45363110  Gyration_radius:  2.49780388998 Dipole_moment: 2.037
 S          -0.47911393388299   -1.25317735949375    1.24688962749643
O          -1.30505152402048   -0.98254631389170    0.07863123649851
O           0.71223648209944   -2.01053748691062    0.86384142152853
O          -0.18649050796502   -0.06918938302168    2.01727821597977
O          -1.31288248837116   -2.21374294645106    2.17966268089049
H          -1.33742692912202   -3.00435472096018    1.65208215407332
O          -0.62355805230443   -0.85877211576377   -2.51231153569681
H          -0.85336679787956    0.07027273772453   -2.61772510219619
H          -0.90670233869550   -1.08196417186452   -1.60393768067048
O           1.97679905019491   -1.08177666520615   -2.64749612821051
H           0.98422846411483   -0.98999924466435   -2.66386608187358
H           2.17275224899787   -1.96873528950507   -2.95341678875456
O          -0.92080178932567    1.55185264342510   -0.76798032183576
H          -1.33520720256619    2.12454858581945   -0.09090773043452
H          -1.16509098897858    0.65363383982018   -0.47455387472255
O           1.38020828097510    1.42406264663212    0.48399616413356
H           0.91832190914255    1.02624454165521    1.25078848413828
H           0.63714515026743    1.61436649392713   -0.14979706881830
O           2.52676283209599   -0.66264188173970   -0.20224672539355
H           2.14359153636805    0.31412395138007    0.04138572709714
H           1.85614378725712   -1.28995879257533    0.27411327484804
H           2.38542835861613   -0.80878277527454   -1.21059711113045
N          -1.79279706064116    2.40413791954157    1.67594277451045
H          -1.36816238335399    3.18030027480514    2.16878178486173
H          -1.34200485475036    1.55226885340944    2.00599715854447
H          -2.76496122829078    2.36036665922780    1.95544546514823
