    26
        -50.46408866  Gyration_radius:  2.39959622059 Dipole_moment: 2.437
 S           0.62125848967784    1.02260135228513    0.80035865837682
O           1.32365411632895    0.25366563454690   -0.23899956072406
O          -0.81569061071539    1.06591159871425    0.49096157206295
O           0.87105702826095    0.49600342237714    2.12264284624806
O           1.15531964086898    2.47031859918441    0.74435708099986
H           1.00693072092060    2.74056256535666   -0.21046417543736
O           1.03109714721403   -2.33743341783334   -0.00523148614389
H           0.81129409597787   -2.43768963546549    0.93937525424876
H           1.32201637920821   -1.39679623618651   -0.09862965070838
O          -1.20698045152050   -2.06261861225201   -1.08777883466085
H          -1.05158736404908   -1.19075269594960   -1.60974701106212
H          -0.24659385009776   -2.31517681424458   -0.71184714227886
O          -0.60985534631301    0.26429320259357   -1.95471627045200
H          -1.02317203206961    0.70782553395069   -1.18119639730799
H           0.31522183572236    0.19334870627263   -1.62939916170576
O           0.07160708469420   -1.92096946410266    2.50328342016160
H           0.40401652356479   -0.98435592191107    2.42381643569946
H           0.26757715496239   -2.19586683844587    3.40006056697974
O          -2.09509765244659   -1.14431505187511    1.06062641432767
H          -1.51627314178296   -1.54952473262840    1.73281243021558
H          -1.74524916739508   -0.22608621046752    0.94657874398772
H          -1.71790461062340   -1.75212914534085   -0.20796677243576
N           0.73957314942596    3.03118269985299   -1.79687588525616
H           0.14055651897746    2.32272945596030   -2.20723978069447
H           1.63064350700097    3.00775822405488   -2.27566526473058
H           0.31658081419060    3.93751374154496   -1.94911604971087
