    26
        -50.45363110  Gyration_radius:  2.49779784156 Dipole_moment: 2.037
 S           0.51711015159438    0.91263849551853   -1.50137496183568
O           0.31650045780433    1.58848169693605   -0.22731006700361
O           1.75843883670647    0.13922644020882   -1.47761483449176
O          -0.63126169961184    0.14682972134028   -1.92057182172687
O           0.73775802646177    2.03923247526952   -2.58305475019596
H           1.57548539378479    2.39485150252314   -2.30782573052411
O          -0.84265692428118   -1.84994339559670   -0.18747907017611
H          -0.91360196034543   -1.28650464556998   -0.98564220763067
H          -1.10475343630976   -1.23116430896297    0.54633082132281
O           1.27056881507189    0.98145916684359    2.20454204111545
H           1.07469625621133    1.30729120952827    1.30420704576603
H           0.40695594786736    0.81896553874312    2.59800897168259
O           2.52460948986347   -1.30265251422086    2.00428867094525
H           3.46455255906551   -1.11553458845858    2.01798029962409
H           2.06098744187425   -0.43173643490001    2.14731877102549
O          -1.47175075713665    0.23443161344340    1.27470508354660
H          -2.33844838109831    0.36459293397926    0.83878668398615
H          -0.87827539155931    0.81331294128922    0.75966517985732
O           1.62713624761328   -2.03747976301323   -0.25667628594266
H           0.55499475610058   -2.08807948617989   -0.16605379042630
H           1.76246891940275   -1.18296184930328   -0.82378226776072
H           2.00754952252746   -1.82343718919574    0.67475163335557
N          -3.30176422048407    0.62490517612722   -0.71483929595889
H          -2.48722787423660    0.54846443682377   -1.32189587271916
H          -3.73040035104151    1.52437977700042   -0.89471636344208
H          -3.95967179584209   -0.08956895018352   -1.00174789238333
