    26
        -50.45462867  Gyration_radius:  2.52333414256 Dipole_moment: 3.167
 S          -2.46789156676780   -0.41331467993785    0.54947630265341
O          -1.96318377654380    0.66072849378132    1.40528930132441
O          -2.76717620547238    0.07385063716270   -0.78323075947103
O          -1.60261788763366   -1.57276941302351    0.56929523378715
O          -3.84373379597604   -0.86603894850000    1.18026551675801
H          -4.37307510402859   -0.09154987655366    1.02538386358360
O           0.37747400556932   -1.28176727815388   -1.29099654462279
H           0.12503968823698   -0.43212621713238   -1.68143360763292
H          -0.42387548815093   -1.57543635158768   -0.82458647117630
O           0.92158023431004   -1.61834840746907    1.41266257956663
H           1.14256526849381   -1.57947917325557    0.46688643586770
H          -0.02295816564319   -1.86535009981934    1.39676805544590
O          -0.68110136444753    1.25083151630712   -1.74087420713547
H          -1.50547198463320    0.84701383649279   -1.35928142427595
H          -0.97403937443002    1.81705878217522   -2.45655228165068
O           1.33918436145162    1.89148784881697   -0.05224273774800
H           2.03921511494449    1.24965753401895   -0.35585360145462
H           0.59330640789356    1.78432578784942   -0.67565380599230
O           0.45544244729248    0.80855691592100    2.00338822145789
H           0.74853351995020   -0.17038118191080    1.86919750473785
H           0.86284272850869    1.35457669200807    1.16952814900691
H          -0.56730353159707    0.79263824877778    1.83648824928330
N           3.02196305108657   -0.04225990686530   -0.82764023406581
H           2.35684331681814   -0.69620830171684   -1.23115544592122
H           3.50120646844093   -0.51076500314197   -0.06886904394686
H           3.70723162232654    0.18506849575283   -1.53625925838319
