    26
        -50.46186363  Gyration_radius:  2.40785086093 Dipole_moment: 4.161
 S          -0.00750454048338    0.93078777107822    1.50086147594239
O          -1.40833572157598    1.05238442903564    1.11870463643230
O           0.33979012401997   -0.45893327603451    1.78646645758139
O           0.90802181717860    1.55186107297896    0.57934370371419
O           0.13671655340287    1.70400384929905    2.87403426650952
H          -0.55063882682755    1.29254457739302    3.38520475664588
O          -2.85934103698312   -0.84653964728604   -0.03923739668264
H          -3.55262045539325   -1.17542927411021    0.53395510721704
H          -2.38341569512463   -0.14943309395847    0.46467891452399
O           1.38679451287675   -1.20524451803539   -1.68340290646023
H           2.07366370713001   -0.99571144386021   -0.85001233057572
H           0.59608440587764   -1.64291934973022   -1.20209365380405
O          -0.45460119170370   -2.07780111110517   -0.17063650485723
H          -0.16833383455857   -1.59710916525909    0.63451425927167
H          -1.37649583086366   -1.79474182172182   -0.31557053852993
O          -1.92817639948537    1.45098249470886   -1.54439380583345
H          -1.75045837878466    1.55623751010246   -0.59349107441800
H          -2.49791465889056    0.67770159978388   -1.60744002378041
O           0.67125674283392    1.17129016308162   -2.03751442025428
H           1.07147838131155   -0.24646653463795   -1.96105549014852
H          -0.30017493263431    1.29801797901942   -2.11164311170959
H           0.87055924590303    1.47415168891628   -1.12756005915730
N           2.72308667533955   -0.59279533648686    0.35695836462820
H           3.49173231116219   -1.14903710897267    0.70769819056310
H           1.95343772188414   -0.60084918873091    1.03460905863491
H           3.01538927439292    0.37304775452859    0.26702213454537
