    26
        -50.45462862  Gyration_radius:  2.5232822029 Dipole_moment: 3.166
 S           0.05884151152199    0.31946745965676    2.54103632796326
O          -0.89156763589601    1.27032830268460    1.96374726243239
O          -0.52104002509447   -1.00568763065707    2.64436712519448
O           1.33510321668193    0.34933568965004    1.86012936424229
O           0.32440157640795    0.80876047088263    4.01939950521277
H          -0.52622327283407    0.65100512158035    4.41383671577266
O          -1.66827966331827    0.16056026336658   -1.60104490492096
H          -0.94115721615316   -0.11770697739096   -2.22390258632594
H          -1.70013531818882   -0.52747557836333   -0.90672641675875
O           1.27033320152844   -1.32195341625522   -0.30044952774605
H           1.45840799145257   -0.93958702489922    0.57384612168595
H           0.37756997295962   -1.68664740397938   -0.21122612128411
O           1.79439517380582    1.39629586727975   -0.54339897269468
H           1.89535124753108    1.28821380843765    0.42174350210098
H           1.75123673173075    0.47588258068908   -0.85262873140138
O          -1.40929983098461   -1.72192449169083    0.33087774705036
H          -1.11872963211797   -1.43241452359770    1.23642458281530
H          -2.04241803218150   -2.42750708441577    0.47215683345598
O          -0.64916742547201    2.07501328390778   -0.38642330786198
H           0.35652010454960    1.91366753394666   -0.54379931538130
H          -1.16066483647011    1.30811448916134   -0.94304849079746
H          -0.79420490418263    1.82293735674317    0.60827374538115
N           0.46394204498042   -0.57497893988250   -3.04521493257251
H           0.31369337682007   -1.21170379241041   -3.81685080547507
H           0.99317842460152   -1.06629438006795   -2.33009580423057
H           1.02991319832190    0.19429902561913   -3.38102891585716
