    26
        -50.45462868  Gyration_radius:  2.52333104735 Dipole_moment: 3.168
 S           1.00609725696899   -1.56570935094408    1.76057021485243
O          -0.34696972876549   -2.01848811897911    2.01992486863303
O           1.46043862192015   -1.98588547208835    0.43480630288095
O           1.20117987137071   -0.14821215284351    1.97532551747372
O           1.93459882565745   -2.31143258562219    2.79868976067915
H           1.66204815401046   -3.21245333144603    2.66485840345902
O          -1.88596637987612   -1.22071657160631    0.10972894631040
H          -1.29095801248502   -1.57776853130748    0.82160105083060
H          -2.67310984226325   -1.76729395827952    0.12793461311985
O          -0.94721083972668    1.23758376759650    1.01121095122752
H          -0.30397419549535    0.81641072063596    1.60689237587303
H          -1.50584147304003    0.50531562008129    0.71159998221379
O           1.63410389844739    1.66953187978154    0.07947825428385
H           1.82766546737129    1.14701472651297    0.88126716298479
H           0.68955743331655    1.87265125128792    0.18628355477491
O          -0.75278505531045   -0.29778336051994   -2.17220346588718
H          -1.20535008112637   -0.72630473883123   -1.41853841692048
H          -0.97800661357085    0.67130183917714   -2.10695246488592
O           1.62525386804095   -0.35885505595199   -1.45076168352940
H           1.62521623833260   -1.08455834524272   -0.71094814000328
H           0.62494252988918   -0.37064832908853   -1.84916355330448
H           1.71209008924833    0.52870085621428   -0.93413118698396
N          -1.23438928987429    2.30000899375116   -1.73361660877704
H          -1.34524582972321    2.28543552756364   -0.72349662472382
H          -2.07307059377454    2.69841110808648   -2.13523604663204
H          -0.46031428956092    2.91374363206925   -1.95512375792618
