    26
        -50.45462874  Gyration_radius:  2.52338053989 Dipole_moment: 3.169
 S          -0.10994900816875    2.47624986612088    0.64839078463482
O          -0.13064984643811    2.36523932303618   -0.81034483585710
O          -1.41393240726442    2.19107831224931    1.21536002585839
O           0.96538488583728    1.70578578701354    1.23444160664352
O           0.19553644649907    3.99301259093307    0.96801950017553
H          -0.60041918524549    4.40483991563788    0.65039652785378
O           2.32419747273845   -0.23981408819162    0.02846665582816
H           1.74269406911656   -0.83381880840241    0.53232441537030
H           2.19492913670698    0.61464479892169    0.48291866039128
O           0.14814992737270   -0.87074020284489    1.63580628101465
H          -0.77045450048924   -0.80951225430840    1.33498312905368
H           0.41166642501293    0.05406939109218    1.78139623608862
O          -2.21398178313466   -0.11358965563197    0.37780857916112
H          -1.93777778374882    0.79801846749573    0.66248833185903
H          -3.16401443069321   -0.14917633074210    0.49954603303837
O          -0.92610013086819   -1.25329387135953   -1.71622905969020
H          -0.46969421556945   -2.01149958694896   -1.25693326265727
H          -1.49075467264165   -0.83329055951259   -1.03710046580153
O           0.90110152081720    0.41239686184798   -1.97298006104976
H           0.10130075323329   -0.30855837095440   -1.96002168352177
H           0.48940326006171    1.27348930260607   -1.56938504858651
H           1.57572846784605    0.09697069223872   -1.26057912223894
N           0.41028223180431   -3.09185166946753   -0.29985374346915
H          -0.00184657170877   -4.01170846438601   -0.21351334569392
H           0.39045888678086   -2.65091826095716    0.61557007785035
H           1.37874104214619   -3.20802317549429   -0.57097620624841
