    26
        -50.45462860  Gyration_radius:  2.52322669409 Dipole_moment: 3.166
 S           1.31356708786325    1.99462629616921    0.92634002943486
O           1.07857348344840    1.03617314422145    2.00654272276233
O           2.40901336753690    1.56975118891409    0.07639507620744
O           0.09841779571497    2.30543538675495    0.20512788499986
O           1.78031784171335    3.33365338162906    1.62270373782838
H           2.62481335949294    3.06787494169071    1.96941466021992
O          -0.29758836363920    0.46362666925164   -1.77384810311382
H           0.49643539068750   -0.08043987013228   -1.66630552972310
H          -0.08856136183933    1.28484141782335   -1.29651919129893
O           1.94886108852454   -0.82652975784649   -0.76048879627628
H           2.78543920988248   -1.19661231927678   -1.04646066829827
H           2.16000858307434    0.07537752487686   -0.39959260930905
O          -2.14989508865406    0.88175287312140    0.25464536262401
H          -1.83864989224520    0.53017889725867   -0.59643022729523
H          -1.58370150843474    1.66800068748901    0.37567209880633
O           0.00343730842899   -2.27447407191122    0.44870019271267
H          -0.67840646101752   -2.30418561541736   -0.27812249943770
H           0.78631426413328   -1.83600640051362    0.05971374676258
O          -0.88046056453566   -0.50973554606193    1.95990908124432
H          -0.06989280068693    0.12578320178995    2.07416275609561
H          -1.51813235008019    0.00422542121388    1.33412576459420
H          -0.50390939095990   -1.33630879890754    1.38172928957996
N          -1.80920125157761   -2.06376351092686   -1.51170773705864
H          -1.46271728432237   -1.22835332513088   -1.97529969559926
H          -2.75224176785778   -1.87763336338387   -1.19400271659416
H          -1.85184067463914   -2.80725846271129   -2.19640464987265
