    26
        -50.46186371  Gyration_radius:  2.40787823065 Dipole_moment: 4.159
 S           1.72063226349697    0.39607460016176    0.03931538525588
O           1.78542227252428   -1.04388289303100    0.25261172450103
O           1.17619324735775    0.70698724735889   -1.28000618520901
O           1.05795104580964    1.11618916405006    1.09548169215521
O           3.22053122015086    0.90016015682561    0.01799796430170
H           3.59498590311835    0.32234978241999   -0.63703538027396
O           0.19398474463726   -2.84341993970202   -0.87908659600439
H           0.66272358103608   -3.40759813360529   -1.49507588227674
H           0.85687292233384   -2.22022197363139   -0.50673893337511
O          -1.08785141870864   -0.61817597310218   -1.72788679946728
H          -0.85389185321818   -1.52789478712187   -1.46562251748126
H          -0.24083209824166   -0.12489003615150   -1.70543046434868
O          -2.32747889611025    0.88375281815584   -0.10056161572255
H          -1.96706384460563    0.19642598763063   -0.76842907945516
H          -1.68635735626516    1.75478943504105   -0.30131121119666
O          -0.10728201408783   -2.12814512682912    1.91550330361678
H           0.69550048848126   -1.73189029734582    1.53425070714799
H          -0.42009320824419   -2.74802361277567    1.24884300462105
O          -1.25611432600252    0.26634989186862    2.08032867278008
H          -0.39179978578300    0.68682100765901    1.89117112566065
H          -2.00107587708975    0.57774479778249    0.84587394016101
H          -1.03118873687609   -0.68571731324380    2.16948014087550
N          -0.62777344470503    2.68720612519501   -0.52767900247400
H          -0.79346100918960    3.47680789256091   -1.13790538949488
H           0.10827913572840    2.09317636494404   -0.92406001724380
H          -0.28081294554723    3.01502480488762    0.36597143294384
