    26
        -50.45780530  Gyration_radius:  2.41864550921 Dipole_moment: 3.177
 S           0.58576276770221    1.08430324154225    1.29688371678567
O           1.32004246711651    1.80029114161879    0.26160529785310
O          -0.83198372063575    1.38881035957518    1.26775365184301
O           0.85154419681307   -0.34158737957279    1.27657266120039
O           1.15351074760177    1.61563524641340    2.66956828639510
H           1.15389941177834    2.55487061351434    2.52069027525523
O           2.87630627106753   -1.14926221104813   -0.22152277661305
H           2.21291019536020   -0.78455104514055    0.40180645619321
H           3.21546516545349   -1.94928114758538    0.18306406899049
O           1.20664841542342   -1.10847435075397   -2.28159029451459
H           1.94684873117813   -1.19798167343153   -1.63590659252693
H           0.42767583552775   -1.48392609407775   -1.83941593637158
O          -0.84449921832312   -1.47270017178908   -0.46151503383610
H          -0.19257483112845   -1.15314839665080    0.19384226607941
H          -1.64673432663852   -1.60626726577859    0.08495883951707
O          -1.60765474085140    0.97724996995574   -1.23266312301860
H          -1.53694271470896    0.00140444185582   -1.13235541212351
H          -1.47456006326205    1.30867842553352   -0.31890216379904
O           0.69339483824958    1.34125279157000   -2.12991399492474
H           0.97421988979703    0.33305688443821   -2.30100502604719
H          -0.33625500867694    1.28625089046380   -1.90891686633946
H           1.08208584853802    1.59409265351873   -1.21610426498103
N          -2.70755574828923   -0.91994729754829    1.42525328413796
H          -2.14643198564390   -0.07982859840076    1.56017315192943
H          -2.71967362097040   -1.41816687375591    2.30662327605488
H          -3.65544880247898   -0.62077415446848    1.23101625285648
