    26
        -50.45780572  Gyration_radius:  2.41889940365 Dipole_moment: 3.168
 S           0.18188898247438    1.74474729720376    0.35836646512336
O          -0.21997620697222    1.76397213393880   -1.03509527433857
O          -0.95848919674070    1.60011645654005    1.25420073266117
O           1.22199850192559    0.76957200769146    0.62600788630974
O           0.80824414447893    3.15450903009500    0.68849023204109
H           0.03103376878968    3.70168720308777    0.71817561097702
O          -0.62859580240539   -2.23764415403289    1.57530468476876
H          -0.03567590316437   -1.75299576455408    2.19689204009692
H          -0.14555568075380   -2.28083908555628    0.73379694277928
O           0.64547391044733   -1.45466307714449   -0.75196953978047
H           1.02094799764850   -1.25831123943082   -1.63558929984978
H           0.94208262400533   -0.68928507493865   -0.22025922124783
O          -1.73087925979838   -0.38580463588621   -1.37747915895565
H          -1.32558255552337    0.50747217241509   -1.39972131452197
H          -0.95379844665264   -0.98625682933975   -1.32317551389452
O           1.00648383966992   -0.60412597846700    2.87605162078614
H           1.09627511985804    0.00917907272787    2.11615854067027
H           1.89764155254786   -0.83293413711120    3.14486798805979
O          -2.34314464689596   -0.48773676977947    1.04045571784207
H          -2.27077430615848   -0.49507372865550   -0.01161081475308
H          -1.70389002495927   -1.27607806321315    1.34756430459364
H          -1.85232909634330    0.38225661288298    1.26962272342108
N           1.31585474028340    0.03296877069509   -2.91329630311283
H           0.84888847256189   -0.01585430129901   -3.81076946141880
H           2.27582247061954    0.30650775402057   -3.08327381729175
H           0.87605499107008    0.78461431810897   -2.38371576096735
