    26
        -50.45780556  Gyration_radius:  2.4186594695 Dipole_moment: 3.174
 S           0.63210400537894    0.55362787133284    1.57964280224275
O           0.65046959774846    1.77789524481275    0.80227234344179
O          -0.69045788025678    0.27025224828242    2.12201815907071
O           1.18609831040291   -0.57541797304638    0.85687284481995
O           1.56859453923356    0.77504566976255    2.82974168513700
H           1.03497925258188    1.35425510193935    3.36273711337176
O           0.31485417624962   -0.44450756280932   -1.67309153159408
H           0.96011805891204    0.16656757645763   -2.08578931330861
H           0.68737199904259   -0.57293544249749   -0.77790018605536
O          -1.32298326625283    1.54950856713078   -0.95154531282618
H          -0.82771239359065    0.88154576292635   -1.47680719948857
H          -0.66007654493802    1.86056638703066   -0.29860531965421
O          -1.72442659166486   -2.07995030087873   -0.76740862838425
H          -1.19788815503612   -2.54181231045754   -0.07294875606383
H          -1.07283529881312   -1.66587944037211   -1.35670198852713
O          -0.06368365837669   -2.88988283866450    1.13503621918361
H           0.42222691389137   -2.03838676612846    1.15805955501004
H           0.59715108802902   -3.57453075799834    1.01961692724197
O          -2.56463575376213   -0.07439145597182    0.48140319993479
H          -1.89960598694617   -0.00047669035579    1.25752210249886
H          -2.21666565040112    0.68494219574610   -0.16240939176668
H          -2.32495995358320   -0.97324370962185   -0.02759115649710
N           1.99956501738115    1.66877246525060   -1.85139027702963
H           1.69622153729026    1.83744255089656   -0.89307285032284
H           1.81275504877194    2.51274981913752   -2.37920724998743
H           3.00342158871270    1.53824379809935   -1.83045378044913
