    26
        -50.46489332  Gyration_radius:  2.55403521309 Dipole_moment: 4.643
 S           0.05143010536269   -0.82218013865558   -0.05885289638735
O          -0.52120754323200   -2.03419101424059    0.67623283204041
O           0.88491953674169   -1.29687647083515   -1.14503009100610
O          -1.04899151880929    0.00885703881767   -0.54784748063363
O           0.87774305846224   -0.05264769000362    0.89911380947357
O           0.61617882495493   -0.33174759714681    3.54427015532364
H           0.76877331272577   -0.12978044462887    2.59866955892288
H           1.19658595552995   -1.06412615217942    3.75853710768015
O           0.62730357818010   -0.47956432846623   -3.63899523657248
H           0.73404968791833   -0.88339479776531   -2.74761896768939
H           0.01134822222744   -1.04328852465209   -4.10868992635970
O          -2.68372478445680    0.95021986675831    1.29449864899891
H          -2.06361573247909    0.68721358882086    0.57912362341212
H          -3.56129165589549    0.92138269045090    0.90971235371881
O           0.01283153479395    1.71182698502184   -2.24846121922867
H          -0.54882870308378    1.19893650755729   -1.62212884046836
H           1.31380958491090    1.53227487657530   -1.54368723403727
H           0.14358350868474    1.09630262087840   -3.00082541174805
O          -1.78703775557616   -1.15611588698048    2.66994137522181
H          -1.03486570340700   -0.83192024580045    3.20920944773285
H          -2.22445649031576   -0.34915154241308    2.31769208693246
H          -1.07930766611002   -1.71804565464210    1.49097806796614
N           2.16744304471170    1.14562485128857   -0.96527914589612
H           1.71775631755749    0.70986861073884   -0.08617936279721
H           2.85634015672431    1.85728830959828   -0.74284262551770
H           2.57323114387717    0.37323455190273   -1.49154063908501
