    26
        -50.46220855  Gyration_radius:  2.42269945918 Dipole_moment: 2.974
 S           0.83225722823340    0.88252469949600    0.32381848078792
O           0.46164825502154    0.64415726264117   -1.07878376938890
O          -0.36085492792413    1.10992018714373    1.12748093384333
O           1.63011871432656   -0.22212968505756    0.83873166314955
O           1.71867976397439    2.14705285010190    0.36777940810730
H           1.07654045400873    2.87777946204089    0.13349904118196
O          -0.28789666332549   -1.66465007025802    1.95636511547921
H          -0.83262494754434   -1.02425769255404    2.42078797128929
H           0.48121560212501   -1.14546356772955    1.64132606394489
O          -1.55149835339185   -2.22434533202944   -0.30072097142181
H          -2.03710684258673   -1.36579508701393   -0.39821555034352
H          -1.14014222768015   -2.17809928360697    0.59875271035986
O           2.29687017900099   -2.53010563612371   -0.22284373621931
H           2.02517725351737   -3.15699726871517    0.45238182884585
H           2.27751424750204   -1.64628227161560    0.20673396702165
O          -2.26026497248087    0.30658979946976   -0.52642641000487
H          -1.66149295790648    0.62735934412191    0.18261891895498
H          -1.80781021009390    0.54594929577619   -1.34106157293364
O           0.39535894093560   -1.77012762174057   -1.75823590986654
H           1.19338888251591   -2.18048077749259   -1.27489670639784
H          -0.49504509545322   -2.06203156167749   -1.17728517722530
H           0.47069302907713   -0.75295655783854   -1.57830209929094
N          -0.34848899856242    3.65012649963426   -0.13884213786056
H          -0.54605880662689    4.58256216242343    0.20003317679218
H          -0.84606406732493    2.97556235928670    0.43516840267743
H          -0.68411348939164    3.57413851130921   -1.08986366141121
