    26
        -50.46067669  Gyration_radius:  2.43698867418 Dipole_moment: 5.101
 S           1.67353622402765    0.88606101929757   -0.40813013645081
O           1.13288896102362    1.53959452253390   -1.58196989556886
O           1.38109302567788    1.59110081419975    0.82527849757359
O           1.31130971649266   -0.52025700241399   -0.33535752763352
O           3.25329730530613    0.89546143672167   -0.57663221128393
H           3.43997693678318    1.81677743223864   -0.72444152826384
O          -0.72398648792928    3.01481005343944   -0.36790858906222
H          -0.25007521191943    3.09347417802434    0.46580220247109
H          -0.08312091921629    2.57661916276094   -0.96046043460091
O          -2.26631151641742    0.85842424155901    0.08148077285283
H          -1.95763293986350    0.31635135260071   -0.66663161236638
H          -1.92111706514693    1.75861920710371   -0.10296900205039
O           0.13684477882173   -2.85517539871644   -0.84003292564338
H           0.87225005568389   -2.21898677134524   -0.80454178308778
H          -0.50630893612892   -2.43151535604332   -1.42426356064512
O          -0.85136983906721   -0.42579112498454   -1.89721739767931
H          -0.76311259597658    0.23680646518019   -2.58679527811553
H          -0.02520668159507   -0.34575883685747   -1.37867710386199
O          -0.56815271371900    0.24088649448576    1.95220040421747
H          -1.30849729243264    0.50065568038520    1.32834293440750
H          -0.45198020547993   -1.13992391502317    1.77898975149602
H           0.22593978982806    0.71907194808997    1.61602232500637
N          -0.44604254458536   -2.27754259235283    1.68516071366618
H          -1.34057106740590   -2.64376941591077    1.99464118362094
H           0.30396991484578   -2.64856100006964    2.25891804121038
H          -0.26762069161356   -2.53743259490057    0.66919214979174
