    26
        -50.46067663  Gyration_radius:  2.43704986035 Dipole_moment: 5.102
 S           1.91539577089630    0.09092946235930    0.27447355099384
O           1.51359662170651    0.66016085922484    1.54665739304688
O           2.05843567596524   -1.34972305033074    0.31244429448845
O           1.06849432779823    0.53928014561303   -0.81921609336658
O           3.35523110348983    0.67659961176853   -0.05391441602715
H           3.89804017273287    0.28048609150588    0.61986309595072
O           0.57268115556824   -1.81679089708270    2.47417701464087
H           1.16717785443933   -1.82183254486203    1.69934242271973
H           0.74537845980153   -0.96703659458185    2.89124487820781
O          -0.28399797577155   -1.73115930963050   -1.19364541139094
H           0.25570600320675   -2.50183847395893   -1.00095483885438
H           0.29954049203708   -0.97166177196288   -0.99219385119260
O          -0.63623116425578    0.52301188667580   -2.86373439467098
H          -0.85670132033512   -0.40412578418696   -2.70148811434456
H           0.22490460346272    0.63668632519971   -2.42520597605415
O          -1.69973698019211   -1.31278801121042    1.12749905944141
H          -1.01348631145234   -1.65748595556968    1.73882480653999
H          -1.38283961525047   -1.55255147875700    0.23819922665240
O          -1.04325287280029    1.19859702992273    1.29090159570024
H          -0.06740736130334    1.10543647666690    1.39721859279807
H          -1.38278122154716    1.65997090342043    0.01724925962724
H          -1.39505529327890    0.26012745531184    1.30941061674628
N          -1.75670768088785    2.03786860022268   -0.99285692302309
H          -2.77146778538342    2.01928776878742   -1.00266957958080
H          -1.36455747407780    1.41357640747025   -1.75969258073315
H          -1.42035918457143    2.98497481798850   -1.13193365830478
