    26
        -50.46067660  Gyration_radius:  2.43702794739 Dipole_moment: 5.104
 S          -1.90676702759378    0.32825955103546   -0.08758375397943
O          -1.61223244108720    1.21172383339566    1.02443253931132
O          -1.81600726671868    0.98175634711042   -1.37679169743700
O          -1.13455777267464   -0.90246991368703   -0.02977516143435
O          -3.41949328361547   -0.12763212044489    0.07901130517132
H          -3.89702118245412    0.68196384613325   -0.06945929618783
O           0.56915044281538   -0.36312368323170   -2.01234629176736
H          -0.13089204478889   -0.46674739003720   -1.33623675010678
H           0.15950405629031    0.17109540567210   -2.69730288792437
O           0.56772724863626   -2.84847856499143   -0.66391631989315
H          -0.30408914868856   -2.44707530193077   -0.50394729242553
H           0.93391910509859   -2.32290292318141   -1.38791451063977
O           1.88032182305001    1.46946506343928   -0.43464802283017
H           1.25390542123436    2.21047229509240   -0.58271839948787
H           1.61333676527797    0.78686566872221   -1.07616714851648
O          -0.29166690428921    3.04096176567579   -0.64637203217196
H          -0.60240662050868    3.06873719368005    0.26382392380506
H          -0.87139743471839    2.37962279761582   -1.07114096035754
O           0.82619360040720    0.59478941516578    1.77640391543158
H           1.09626835169767   -0.77290273506321    1.69410002635324
H           1.32464603960058    0.98679168269939    1.00009423484937
H          -0.12266633042715    0.79075802285794    1.59326082090312
N           1.41120398078257   -1.86939008372012    1.65555696403149
H           1.13286565711206   -2.27355103644526    0.71175253123838
H           0.92488312898872   -2.37453008638606    2.38892181448072
H           2.41527184657827   -1.93445904917852    1.78896244958624
