    26
        -50.45440520  Gyration_radius:  2.44947917827 Dipole_moment: 2.517
 S          -1.31358097530940    0.75761698560197    0.23016207564374
O          -2.31219962760106    1.09088042528320    1.19795644583966
O          -1.78777625931950    1.06529105005664   -1.17506479910515
O          -0.07691381732308    1.66447791836894    0.37915605531978
O          -0.87618872005319   -0.62322621558221    0.30274121051353
O           1.55434104651682   -1.44839882555310    0.89202559728460
H           1.50854195421461   -2.30694964710299    1.31689079694192
H           0.63254037234384   -1.22492320053642    0.63665813366628
O          -1.16558119988713   -1.80140507429178   -2.12326149785748
H          -1.77497222180179   -1.21833417291569   -2.58018256545646
H          -1.15561505848950   -1.49850912747184   -1.19964665966083
O          -1.14129856603503    0.23790725964020    3.43905458202789
H          -1.50456287333814    0.74229737972805    4.17012567541858
H          -1.68150382032851    0.46695232744692    2.65654515331160
O           0.34066093589584    1.52194376223607   -2.35145336294790
H           0.74822606330893    2.08944394422430   -1.68997062234069
H           0.85139435621964    0.62542203040189   -2.31641303124638
H          -0.91052691958559    1.26563218034326   -1.75975192540310
O           1.20880195595395    0.81077923156501    2.33575139118784
H           0.50009903084614    1.38034698300027    1.21272909749575
H           0.44866370719028    0.55114831982455    2.90567390532769
H           1.55429286839866   -0.01660707983181    1.94088774509256
N           1.52365260294636   -0.77274218175137   -2.13980979599137
H           0.71641530387265   -1.38104396411462   -2.28314158205014
H           1.86843507506832   -0.93966632780181   -1.20011186944714
H           2.24465480630115   -1.03833400076690   -2.79755015355965
