    26
        -50.45490065  Gyration_radius:  2.57844175423 Dipole_moment: 1.532
 S           0.56623980603392   -0.31791246358692    0.90505238337109
O           0.04246394544754    0.71295277771909    1.77064734747927
O          -0.44070786157114   -0.60658587385209   -0.20511499505235
O           1.85165702328878    0.00297287074825    0.34390127303769
O           0.65894692708439   -1.64805300669333    1.64479098972357
H          -0.29630614480549   -2.03171139598998    1.69678993167325
O           1.10680921607071    0.53387387576870   -3.51850464738539
H           1.65946853033046   -0.08549434220135   -2.98788212036897
H           0.67755457376503    0.00010148618018   -4.18910808702456
O           0.91715670125155    2.64607134142215    0.12001511497631
H           1.78796497663259    2.25666772082723   -0.00703337410963
H           0.54781096761886    2.17170604260302    0.88498499185449
O          -1.75497073270314   -2.37381200820182    1.57226151283171
H          -2.18365403804132   -1.57019728880116    1.99645176293309
H          -1.87573512886735   -2.26526037432674    0.62401567293378
O           2.49250815371651   -1.13314424078129   -1.95827004694399
H           2.25079310487526   -0.78094866712135   -1.07571480561713
H           3.45105361126824   -1.12648256753579   -1.99023599838967
O          -0.56101164657892    1.36700392580967   -1.66069463061769
H          -0.06996939785426    2.02422008484050   -1.10639641082218
H           0.03938563589306    1.14092863325212   -2.42175633520478
H          -0.54739275211686    0.26252712237855   -0.88110558332226
N          -2.58283393934080   -0.05826835971268    2.53350417879957
H          -2.77862871782604    0.02934137402273    3.52258380325768
H          -3.28257061533747    0.47324201171463    2.03091696566631
H          -1.67603218823184    0.37626133149606    2.35590111633685
