    26
        -50.46067668  Gyration_radius:  2.4371244998 Dipole_moment: 5.103
 S           0.81428703265880    0.73089202350790    1.59856920422134
O          -0.57070624207921    0.90364338405269    1.99333556559009
O           1.36747431952106   -0.54671626611316    1.99752295556002
O           1.02146651057270    1.01299885352777    0.18724920409364
O           1.65090262454297    1.84160129559454    2.36703145171348
H           1.57986950822271    1.56312576111301    3.27418605606689
O           1.35542228496893   -1.50058914432194   -0.64655832278382
H           1.77475334540994   -2.04501584065817    0.02435430303295
H           1.25852828761303   -0.62476920358943   -0.22061622290298
O           1.63671871418904    0.71215893801556   -2.38493140822505
H           1.71699958887497   -0.24517702910646   -2.27747875917245
H           1.73819080976421    1.05620548605517   -1.48038191684896
O          -1.33000802675190   -2.00132250311660   -0.32484069427460
H          -0.39735078155405   -1.96331988706316   -0.60327250583077
H          -1.29587627357218   -2.16883656238726    0.64167026854604
O          -0.92591329343965   -1.86088581458603    2.33019200116570
H          -0.00939687988401   -1.52585844060439    2.28966383005569
H          -1.44441696502860   -1.08537944575792    2.56590803501826
O          -1.97240358086854    0.51559690494119   -0.19212063215625
H          -1.85139057636685   -0.47623114763648   -0.27172940300589
H          -1.48337553737040    0.76551949947716    0.62685321236955
H          -1.35516609544083    1.02289944968422   -1.33761115683527
N          -0.92727345013945    1.39874487397510   -2.32678879826557
H           0.08792347416340    1.08966907456182   -2.40133314717428
H          -0.96668331439508    2.41252945580085   -2.33517147627403
H          -1.47257547361997    1.01851628464285   -3.09370164369176
