    26
        -50.46067649  Gyration_radius:  2.43696761193 Dipole_moment: 5.102
 S           0.44662900521436    0.73937672003857   -1.73304629822760
O           0.51844713727026   -0.56409395844700   -2.36015332784161
O          -0.90473414565687    1.25914333059070   -1.64602011252424
O           1.13396705739045    0.78181407790451   -0.45248694549048
O           1.25959526542939    1.73276884616113   -2.66917591281934
H           0.85395586644903    1.59444253370011   -3.51879015372177
O           1.06959975152479   -1.83146121430351    0.08731484920538
H           1.06886995198035   -0.90719610358927   -0.23461677393628
H           1.11790573025627   -2.36053887093130   -0.71275543081452
O           2.40468208421429    0.01781970326753    1.75872321173402
H           2.20721547955299   -0.91121706192712    1.57884473518288
H           2.31088572674205    0.44714286690635    0.89059923427184
O          -2.01912515982339   -1.29294326800553   -2.00026337305069
H          -2.37518304225484   -0.39910340538501   -2.01163794599642
H          -1.08038451770006   -1.17359187434231   -2.24164981388797
O          -1.62308845626615   -1.68939603353097    0.62993732151513
H          -1.92570964323773   -1.73179807056053   -0.30284567310967
H          -0.67118267779838   -1.89239031700201    0.59134349266756
O          -1.62944315606527    0.90189875391175    0.85169095985647
H          -1.36558746921700    1.14451094564401   -0.06694050297384
H          -1.73978783521534   -0.09429361454906    0.83329690707701
H          -0.58858032168830    1.10938159905066    1.75876388111842
N           0.19903237341426    1.25223635540863    2.57279556020491
H          -0.16425365814573    0.90652606542867    3.45518988585694
H           0.41815715761579    2.24027935410677    2.64478331635635
H           1.07811749602070    0.72068264045954    2.29709892934882
