    26
        -50.45490056  Gyration_radius:  2.57810198552 Dipole_moment: 1.526
 S          -0.58579831293161   -0.82698240695562    0.45942128675078
O          -0.68984688015065   -1.61669499262208   -0.74559799293318
O           0.66916119997367    0.03871673286848    0.39039704497876
O          -1.74384442619441   -0.01099484423430    0.71185749648752
O          -0.32692737795527   -1.71915463111527    1.66867786633939
H           0.66705619212191   -1.98942194413581    1.63699394868041
O          -1.39194858599375    2.18126857874119    2.15064987944886
H          -1.49902343825723    1.32943638001026    1.67693008647775
H          -2.25034338231975    2.38078587301612    2.52912400771977
O           2.13718603427787   -2.16919096887422    1.37632112723832
H           2.40702124178803   -1.25042586709787    1.28337406642727
H           2.12793214268816   -2.54702605967838    0.44552839159979
O          -1.84995456636517    0.41839693677432   -2.06420271623897
H          -2.45860644392277    0.63788382091367   -1.35178271026484
H          -1.50332468650641   -0.45893816298167   -1.82603712812015
O          -0.43615406939883    3.69702728234561    0.17041761178597
H           0.29749426573571    4.19861153074107    0.52964699213732
H          -0.81493648210759    3.18815765559535    0.92425863867600
O           0.34753312507918    1.71543463373383   -1.37343816210115
H           0.05703640723137    2.52951898417331   -0.87955244972025
H           0.58323980656435    0.80269920507165   -0.40683892806336
H          -0.46272078529634    1.35389541786886   -1.81315026261329
N           1.79884151606035   -2.93223735031000   -1.12890371212807
H           0.85741416529537   -2.53778931955660   -1.15559856197096
H           1.72621385099083   -3.91874290865114   -1.34281017913346
H           2.33729949957128   -2.49423356571789   -1.86568564147232
