    26
        -50.46067660  Gyration_radius:  2.43713904995 Dipole_moment: 5.102
 S          -0.44069769621483   -0.34707135169714    1.85409937911174
O          -0.18897927380674    1.02201725227067    2.25370803562463
O          -1.76659275149558   -0.54783946996865    1.30133590190436
O           0.60029917451322   -0.87648350885065    0.98789822710393
O          -0.35926499031274   -1.22247963457119    3.17740980466401
H          -0.97077707646884   -0.77931753287876    3.75635398780571
O          -2.07814339230257    2.19416842112428    0.78561392002815
H          -2.67581504108012    1.44014445877437    0.78353965620468
H          -1.37001318151865    1.92947859185156    1.40393559783151
O           2.73138807412023   -1.02542310848431   -0.59996800172178
H           2.21082637939297   -1.18147648876338    0.20723746496309
H           2.78528340423629   -0.06189656303374   -0.65636043095370
O           1.54836519569581    1.44987077534093    0.08590512232100
H           1.47742425882763    2.14290664954113    0.74697745826632
H           1.14664674078260    0.66653524757836    0.51360474018936
O          -0.68638616514549    1.79375808018823   -1.48049370319982
H           0.20468007650526    1.77563903720082   -1.08747789941367
H          -1.26587407142443    2.14474311056236   -0.77029292558810
O          -1.42455903929751   -0.69353466157935   -1.29736107850912
H          -1.58724394706866   -0.74398712354724   -0.32608958748557
H          -1.21747058579020    0.27116766395508   -1.47398794527267
H          -0.25304883697187   -1.36142242328575   -1.66024262695506
N           0.68210440256913   -1.88560115076334   -2.05229879878094
H           1.52873523210352   -1.51839366616677   -1.52308606959200
H           0.77668782330776   -1.70343583890886   -3.04624601881193
H           0.59242529682759   -2.88206678588568   -1.88371418972808
