    26
        -50.45490058  Gyration_radius:  2.57827966412 Dipole_moment: 1.533
 S           0.02740653066931    1.09047047861538   -0.22393818118808
O          -0.73494928737125    1.49435540207939    0.93443227329808
O           0.73900011761371   -0.22689256682711    0.07275187015628
O          -0.76456373090656    0.97351968072771   -1.41949666005268
O           1.17845282803326    2.05799024951081   -0.47663082611236
H           1.91341872370191    1.83927416728056    0.21221284339131
O           0.10291124341743   -0.67993300205047   -3.29436527366985
H          -0.15506666792046   -0.02834366216127   -2.60862541126486
H          -0.28833555655060   -0.36851891877158   -4.11279893911759
O          -0.80393247393431   -2.92451140678186   -2.16557840147018
H          -0.48049135194520   -2.12187629399698   -2.63645574043160
H          -0.11817896526206   -3.58670116026641   -2.26604831270950
O           2.81997824717506    1.27173212732411    1.26850604670859
H           2.80330899254683    0.34099008356988    1.02573866028765
H           2.24345250803367    1.35138288359027    2.08745847139658
O          -2.79373448230201   -0.07890557436780    0.21713103497865
H          -2.78163327175450    0.19138728890247   -0.70642070888217
H          -2.24078090241474    0.58071679820308    0.67057620731718
O          -0.96195507859915   -1.98455555358751    0.28802762585815
H           0.01315896613702   -1.05176443938406    0.19869781042399
H          -1.78161652292533   -1.43098511386325    0.33223703612791
H          -0.96925804021858   -2.42181124264041   -0.60601267849209
N           1.00312602288322    1.40761570186995    3.17945489587625
H           0.96596824607781    2.22548023148829    3.77444438770546
H           0.81829137237855    0.59649482824169    3.75619075109334
H           0.24602253344023    1.48338902329717    2.49851119878747
