    26
        -50.45289440  Gyration_radius:  2.64786488731 Dipole_moment: 2.993
 S          -0.15956746377878   -0.66425689378388    0.44597354112919
O          -0.16304077564825   -1.06133789852341    1.83305109801018
O          -0.85663269511167    0.68534440973889    0.30913117959479
O           1.29607776909177   -0.38713673084871    0.02373324411206
O          -0.75595477877092   -1.58554475886148   -0.47408266120475
O           1.00817302681425   -0.16815211605354   -3.84204698548897
H           1.52734234650361    0.63636684584639   -3.80147190629295
H           0.10725814898947    0.05308487699539   -3.47950764486912
O          -1.72929562730353    0.29811480256401    3.58430587576171
H          -2.64283652158614    0.02659340249516    3.48596793448465
H          -1.19174181839414   -0.34194677213489    3.08380141530916
O           1.86791364752708    0.55191823643674    2.60439025116917
H           2.43099237396751    0.50381591286566    1.82760025301311
H           1.25225157795026   -0.19658352378856    2.52362567032135
O           1.55047210866235   -1.89718651653698   -1.93965615928564
H           1.44186563972908   -1.31719160611286   -2.74236014335549
H           1.50471945804913   -0.99753333009619   -0.79690764839230
H           0.69106506826215   -2.31350760926225   -1.79527595713606
O          -0.25833778752799    2.09991264904270    2.25644540568629
H          -0.60073374341596    1.34843791953484    1.11303329804093
H          -0.86857561492518    1.70278711253528    2.91280833419180
H           0.63083010068322    1.73959441892876    2.48969555432849
N          -1.30164567049361    0.31271142365469   -2.58382839502794
H          -1.33964549253113    1.18335508321053   -2.06678391891432
H          -1.26543362676059   -0.42738562233651   -1.88499245372140
H          -2.17551964997076    0.21572629447741   -3.08664918148018
