    26
        -50.46220851  Gyration_radius:  2.42264996066 Dipole_moment: 2.965
 S           0.18013240341913   -1.23684097758260   -0.11373749565647
O          -0.98920660914775   -0.90496578000400   -0.91582161116327
O           1.25843892783995   -0.26924684919049   -0.36394356293550
O          -0.13612136765858   -1.29678904550676    1.30700846570496
O           0.69599539437132   -2.63307633841737   -0.52724942713425
H           0.76396296723083   -2.55996209518444   -1.52284304319252
O          -0.38954576362931    1.54169396404013   -1.71858385180526
H          -0.73674516555578    0.65202761177857   -1.49034265859399
H           0.56488952454064    1.42263350833432   -1.73901159338672
O          -0.70550377642085    2.54134696450057    0.70259761385091
H          -1.34358008791447    1.86991671978354    1.05249197530062
H          -0.67861561804810    2.37585474560890   -0.27415069216562
O           0.73733267523304    0.11474246317665    3.34196839188681
H          -0.07661515545163    0.40844991583575    3.75902207755742
H           0.47705863406345   -0.59306506690194    2.71146222308672
O          -2.14439280780610    0.42653898022987    1.38187680422754
H          -2.67950884499330    0.20545615811222    0.61548299740801
H          -1.46847429084234   -0.28204774393373    1.41779767819860
O           1.46617297467516    1.54905173809492    1.35177683606286
H           1.49336407942714    0.79478199062444    0.64226244600272
H           0.53724219008912    2.08936303744451    1.10787082611000
H           1.29047041216624    1.07015040823085    2.23423760012536
N           0.55836880798360   -1.97054285659478   -3.04332519340304
H           0.32233826396499   -2.55197617870442   -3.83676943603219
H           1.26922123367519   -1.30962006722702   -3.32737045698848
H          -0.26667898129213   -1.45387519660105   -2.75270693309032
