    26
        -50.46185101  Gyration_radius:  2.40107780232 Dipole_moment: 4.302
 S          -0.17535264143674    1.66285278886609   -0.72065061026297
O          -0.49951727460732    1.57616714256651    0.70102836371596
O           1.21634397196493    1.30108383982161   -0.95456808145037
O          -1.09217259365409    0.92383917531618   -1.55283954093629
O          -0.32174470413135    3.18480487583845   -1.10865052333811
H           0.27132870970551    3.59689449644333   -0.49029774534321
O           0.50041175120010   -0.67097946769836    1.67662863226305
H           0.15424407805525    0.20588781724491    1.39736445893504
H           1.47272931419558   -0.63442808878290    1.46446524070028
O           0.79127294785449   -1.02557135561403   -2.07913875975077
H           1.05366336417187   -0.15517218251237   -1.69775874914829
H           0.08359164162168   -0.80906524018137   -2.69377395192064
O          -0.40600716835294   -2.15343289232986   -0.11393437219021
H          -0.02118286562832   -1.60375938186187    0.71337203526488
H           0.12788286015476   -1.82599924900798   -0.92082085863440
O          -2.60215474472879    0.33061946547984    1.81440200003832
H          -1.93234077456222    0.94321807729344    1.45384344904560
H          -2.17650868774171   -0.12045794779048    2.54710788931550
O          -2.56997396475265   -0.98643771920939   -0.49243789763735
H          -1.39521439797424   -1.76411994135073   -0.26896328159707
H          -2.80628910701739   -0.58932581373461    0.37801707629580
H          -2.19108025553958   -0.23968846253517   -1.00684223591504
N           2.93981463503447   -0.37270255822796    0.66667756275626
H           3.27335238280745   -1.13459968434594    0.08943480338981
H           3.73459302849823    0.01779747297876    1.15604196953607
H           2.57031048488469    0.34257484335014    0.04229311689031
