    26
        -50.46185098  Gyration_radius:  2.40102517539 Dipole_moment: 4.308
 S           1.82074426075379    0.02432396170104    0.00142609443338
O           1.46029748736020   -0.87107097495390   -1.08980240382080
O           1.19332082898689    1.33159566265713   -0.17455437191240
O           1.57073128568459   -0.54941199490366    1.30050642586299
O           3.37537429868001    0.26907719073000   -0.10531031953366
H           3.44487553008270    0.68436055281273   -0.95779146295357
O          -1.33718874371803    0.98378402474169   -0.86612723150885
H          -0.39510541559260    1.18660542490681   -0.67122122640775
H          -1.30579277339847    0.41618772045950   -1.68378115358553
O          -0.20868149800022    2.72031526917681    1.64731321819841
H          -0.95695547782025    3.00501862934345    1.11759049860685
H           0.43704305386126    2.34704502279221    1.01677437867925
O          -1.87337096332606   -0.65695896582311    0.93606986331960
H          -1.29539055820127   -1.44949346431317    0.65099619463695
H          -1.74573660332142    0.06860414450826    0.16738873628789
O          -0.15613521602664   -2.43253435208139    0.25428089196268
H           0.35544431215394   -2.58491032500361    1.05462431822645
H           0.45505213662366   -1.92464462209822   -0.32914185029530
O          -0.46337589738185    0.31315436691379    2.74088621713933
H          -1.36685302725522   -0.24706679114854    1.79060721945635
H           0.39069817505589   -0.02587395199151    2.39229427882718
H          -0.43685257037996    1.28088692960535    2.55600656507461
N          -0.87430619060653   -0.77297997988669   -2.80516337240185
H          -1.36280723449970   -1.65627059581323   -2.72784193719402
H           0.06219358991500   -0.90919148281964   -2.42774323903085
H          -0.78722279962832   -0.55055141950825   -3.78828631205810
