    26
        -50.46185108  Gyration_radius:  2.40102992681 Dipole_moment: 4.306
 S          -0.73929720648092    1.57140605444935    0.54761914718783
O           0.67342358091040    1.68774637472639    0.88403593965845
O          -0.90912697860052    1.27770286415493   -0.87321760270744
O          -1.44267293596428    0.64640217637616    1.40133353642418
O          -1.38075505575017    2.99390886810402    0.77813952762881
H          -0.89747046447893    3.52445539374351    0.15455787674921
O           0.27529739174080   -2.15632698132089    0.30271618338034
H           0.53324130440795   -1.57857550767863   -0.55385295701329
H           0.61708567914097   -1.61625393306387    1.09937887426223
O           0.81163025305859   -0.60523383128964   -1.57692658098983
H           1.70502207428708   -0.24613658077039   -1.32272763758706
H           0.18969025986636    0.13566539293683   -1.40100352945171
O          -2.42419239223518   -0.65226953725207   -1.96488231061770
H          -1.82079676293919   -1.00130240987460   -2.62491792046077
H          -2.00987452937140    0.16746901256376   -1.63277408191152
O           0.90692067640367   -0.56074241494092    2.20608627396649
H           0.12146354469544   -0.53297084428194    2.76083865377984
H           0.91481570142281    0.31617461028070    1.75569256068323
O          -2.16632318551418   -1.70812289490596    0.45885560850410
H          -2.07919485094373   -0.84259515109219    0.91630287105697
H          -2.44557128762435   -1.47442724864367   -0.45699778685641
H          -0.79507409497249   -2.08899744740424    0.37031783284471
N           2.95127961680486    0.53023271400094   -0.48475280114785
H           2.32999001107392    1.13514340387769    0.05017365965987
H           3.61693757939168    1.11613542683342   -0.97181204034769
H           3.46355206118902   -0.03848751946057    0.17781668318782
