    26
        -50.46220850  Gyration_radius:  2.42261347273 Dipole_moment: 2.965
 S           0.29785450683927    0.98381908740302    0.72075500992546
O           1.54358171665776    0.29799047999274    0.40680096164032
O          -0.52108877089358    1.12957526019758   -0.49161461096112
O          -0.45035058260538    0.29803720678145    1.76573621179501
O           0.62008790890205    2.40145318952239    1.24357640947659
H           1.23882175376946    2.76167960580221    0.54458978198425
O           0.37256436714145   -2.18177056793931    1.33765675386369
H           0.08937404342301   -1.28377329898906    1.60905515460465
H           1.32000512470597   -2.10108618937100    1.20202597279976
O           1.01897579933298   -0.64988776109156   -2.00511160861124
H           0.42408311303948    0.05600386452308   -2.27605183439045
H           1.34065077381639   -0.36600363238578   -1.12196955641798
O          -0.70905886384754   -2.40976914252874   -1.06730755646918
H          -0.00996861410218   -1.92395214348244   -1.57449258768285
H          -0.33601951868094   -2.50423943619202   -0.15508134549414
O          -2.82352156708872   -0.82633931802243    1.75224208384101
H          -2.02112472054655   -0.29066939438176    1.94044185633410
H          -2.64215035832713   -1.70333445348122    2.09968723469371
O          -2.34120849858657   -0.57745631747468   -0.74868229363622
H          -2.69731990368819   -0.69650326624555    0.19901092307737
H          -1.66383613050013    0.20346446891639   -0.68080029424188
H          -1.69832516057690   -1.45066768280509   -0.94431486431431
N           2.25924430765529    2.79248835641747   -0.74362961369590
H           3.12331628259760    3.31843505339932   -0.75565477866079
H           1.79341232797359    2.91617398948042   -1.63279806960584
H           2.47200068359125    1.80633204199763   -0.62406936989299
