    26
        -50.46797320  Gyration_radius:  2.47278778147 Dipole_moment: 6.434
 S           0.00703233325961   -0.56327831388943   -0.98278803804666
O           1.19157521114656    0.27444774252650   -0.96591564674565
O          -0.13528948989841   -1.33625335209262    0.25127498953709
O          -1.20963621734916    0.22954711041783   -1.20396015981322
O           0.10424453853598   -1.54936495082284   -2.16614652484685
H           1.08632147730395   -1.75807417850899   -2.20737334007954
O          -0.57764263845849    0.12356641627619    2.40958080326601
H          -0.35215890804717   -0.59700454009155    1.78147630920691
H          -1.76119122737546    0.60689593087973    1.71541182714410
O           1.95910369428567   -2.94687196030903    0.43932927705493
H           1.61813298374372   -3.83998536825523    0.50886020855743
H           1.17883400002170   -2.35241756949454    0.46368331136538
O           2.63125547219044   -1.79562888860063   -1.88681227096415
H           2.59342711215988   -0.87436991010330   -1.58743307269888
H           2.63779758383825   -2.33067793862160   -1.06564285921499
O          -1.07538737008204    2.83462823063857   -0.62184619765031
H          -0.70848167129539    3.41077573579665   -1.29387076014532
H          -1.04169450608106    1.92768492073214   -0.99353249607352
O           0.87710077183135    1.89805861585641    1.13644249932722
H           0.07452909267306    0.83395488572988    2.17914758025220
H           1.18504981683095    1.30870267029591    0.42037643437462
H           0.24996417086712    2.49363878631969    0.69844721246096
N          -2.50263472185804    0.93134214625451    0.94866657463591
H          -2.11893203866654    0.51585969518536    0.04750422299791
H          -2.46663128955364    1.94430652910894    0.83299237889688
H          -3.44468817000890    0.61051756476448    1.14212773719209
