    26
        -50.45259873  Gyration_radius:  2.48638824702 Dipole_moment: 1.284
 S           1.78031071814611   -0.39837561023931   -0.19039353749977
O           1.24549203752074   -0.50601051718055    1.16272469937092
O           1.23791988004436   -1.46494137856150   -1.03538347062862
O           1.65787405745487    0.90991846613956   -0.76867223202452
O           3.32799249944101   -0.69405379567880   -0.06810875929191
H           3.34618573248232   -1.54246824629299    0.36175362187971
O          -0.83049550984555    1.22707835922159    1.49041372201985
H          -0.51443730414008    2.14502852910580    1.36104115359042
H          -0.00791227614095    0.70789122525467    1.51172245129948
O          -2.30446316987407   -1.33330250172392   -1.98341171593662
H          -2.10002260601456   -1.43083642411039   -2.91527225075773
H          -1.89019877240375   -0.46983480806096   -1.69652976548634
O          -1.00699595587441    0.73530705986919   -1.12820808010174
H          -0.04429987417915    0.80046261586185   -1.23236956746811
H          -1.16572276030193    0.96528436760866   -0.18561837713997
O          -1.03587361160157   -1.67509884033505    1.81798497712245
H          -1.58618846850304   -0.88482616482710    1.87336889295977
H          -0.11753055775838   -1.33093768206968    1.76974891671279
O          -0.83514142163582   -2.70946405906867   -0.47853090909951
H          -1.03395816747865   -2.37903381498388    0.48292843430501
H          -1.51937261909164   -2.23999707702017   -1.11082720033428
H           0.07803842167795   -2.25168115045935   -0.72043127941865
N           0.63491713576179    3.34397724444513    0.58675970531391
H           0.22682149748261    3.97744976537114   -0.08998191817984
H           1.14055832519008    2.63107107236475    0.06305413270686
H           1.31650276964261    3.86739336537203    1.12223833608464
