    26
        -50.46408161  Gyration_radius:  2.39790258019 Dipole_moment: 2.447
 S          -1.19311672885009    0.56990506917723    0.57414390315095
O          -1.28442146448367   -0.27820292047611   -0.62279517654709
O           0.01843259811006    0.21919661187367    1.33279688400252
O          -1.23343622671263    1.97565388877180    0.24169688223858
O          -2.40769765374048    0.24771723545979    1.47195235617169
H          -2.24967302555640   -0.70400938897065    1.74591450483562
O           0.48921629327678   -2.00967706882258    0.10725681915675
H          -0.28806541041943   -1.67762212789465   -0.39254417667393
H           0.52442715837927   -1.33722050997367    0.82417305861232
O           2.14293267988246   -0.71157219666631   -1.33943687231588
H           1.59592110472144   -1.39316241719899   -0.79681606216718
H           2.33252071650426    0.07439903754004   -0.65201594219655
O           0.67853174053478    2.80726222000843   -1.26701838929193
H          -0.08895955847618    2.55238483778573   -0.68392735911690
H           0.57637022090003    3.74330567668980   -1.44460500964859
O           2.21487820308233    1.18961062145677    0.28511839968556
H           1.44388581804497    0.90400976414786    0.83444501349668
H           1.88351817473763    1.94213893310573   -0.23890287433523
O           0.30447989533186    0.45218994890170   -2.56986025855683
H          -0.42930913340373    0.18149456614823   -1.96423986969121
H           0.46098451230489    1.39301168877799   -2.36679140379846
H           1.43119072800554   -0.27077243788608   -1.99506726112800
N          -1.81459309480182   -2.22785188505103    2.15012030399287
H          -1.17526031524001   -2.62668593428640    1.47133012556744
H          -2.60217042088412   -2.85359715047309    2.25873138098545
H          -1.33058681122959   -2.16190605211885    3.03634102354874
