    26
        -50.46408131  Gyration_radius:  2.39746187329 Dipole_moment: 2.453
 S           0.06208167534481    0.88247727705978    1.13904349163275
O           1.14837167332050   -0.01096095770957    0.70526538325288
O          -0.77085307099556    1.23900400820969   -0.01810406559475
O          -0.72045224947952    0.30198918751405    2.20637245485675
O           0.71577805794497    2.17900059589269    1.66547786572581
H           1.32933676463847    2.45000856311723    0.92018903616326
O           0.35803469975044   -2.47810275012465    0.30963796591086
H           0.78271312495371   -1.62313494197545    0.56691378219889
H          -0.44792741566302   -2.53133189097324    0.85593698559186
O          -0.51009585201201   -1.72464178382130   -1.91261343406731
H          -0.10081459813337   -2.17961678714995   -1.04580905119890
H           0.09091736922397   -0.90509867463013   -2.07307073692699
O           0.87529113890212    0.41647980661524   -1.83241089475386
H           0.13251715924171    0.94588015643957   -1.46912834516559
H           1.31522821833759    0.15127851280640   -0.99382509337746
O          -1.94979267194136   -1.87981258021149    1.61380526555867
H          -1.50399842563532   -1.03824700770306    1.90895074932671
H          -2.44490144077659   -2.19629443082236    2.37064216819053
O          -2.43983467148651   -0.63807730646471   -0.75328477924684
H          -1.41808035739289   -1.31232546171321   -1.54325385514910
H          -2.53352159481368   -1.16222020170956    0.06360278325278
H          -1.96011187638723    0.18082328500547   -0.47429904715446
N           2.32310715855398    2.70804832451188   -0.35338663843827
H           2.50245809379823    3.68693311396052   -0.53603480940582
H           1.96584586466130    2.28040840710738   -1.20069781383320
H           3.19870323616432    2.25753351676426   -0.11991934734891
