    26
        -50.46408202  Gyration_radius:  2.39692128091 Dipole_moment: 2.451
 S           0.34188627431273    0.95914710209419    1.02149295806215
O           1.24163264500538   -0.08732020692115    0.50940901120107
O          -0.63000317048678    1.32205759675471   -0.01937081671588
O          -0.30845836851108    0.55865428988215    2.24833658696906
O           1.20575954850890    2.20552552089601    1.31405811732162
H           1.71643562072947    2.33911413154609    0.46173140735761
O           0.14141978554819   -2.46623890110625    0.48626934363649
H          -0.56244278284242   -2.38125519732031    1.15562480031629
H           0.68980088425920   -1.65004840110107    0.58881077092530
O           0.59051723573801    0.16646981236331   -1.98330246179682
H           1.13401582572586   -0.08059499817871   -1.20177748722439
H          -0.02054782632931    0.80964516812986   -1.56307034514863
O          -1.00540117828295   -1.79284922815989   -1.63333879425365
H          -0.50601958740796   -2.22351442615853   -0.80257873995176
H          -0.35719862068868   -1.06633606996788   -1.96623816256277
O          -1.84273531809062   -1.49972403975168    2.07297419770975
H          -1.26757323485795   -0.69721983748786    2.21123723810286
H          -2.23633097309088   -1.69339404261070    2.92481992883317
O          -2.58633208795491   -0.39397431074346   -0.29514951947765
H          -2.59673614484942   -0.83798656464742    0.57296676836217
H          -1.98266711912582    0.38074586634316   -0.17622290129864
H          -1.78960655121811   -1.24630547978791   -1.16660427773045
N           2.51525141826997    2.36022199198553   -0.96588732322631
H           2.80742378909149    3.28333807343248   -1.25961704986455
H           1.96810688844517    1.94131208113488   -1.70987753154308
H           3.33980304811245    1.79053004934496   -0.82469571800730
