    26
        -50.46408141  Gyration_radius:  2.39729295255 Dipole_moment: 2.450
 S           1.34230565337290   -0.20765948853918   -0.48522137284353
O           0.66289217662258    1.09617598394700   -0.41384304485991
O           0.79023511728864   -1.10451457420822    0.53980050490110
O           1.26111765072230   -0.78678486276372   -1.80668166946071
O           2.83094889692395    0.03067840152276   -0.14970455934760
H           2.79647975388840    0.53857918949275    0.71406055523622
O          -0.44508052133286    0.71722491442591    1.89420599181611
H          -0.09004681649673    1.21245276689317    1.12221234440306
H          -0.00952436767660   -0.15052240029501    1.74838982230641
O          -1.72545176663184    1.07718333141010   -1.49170711111067
H          -0.79434484301274    1.22697776102508   -1.19460792002285
H          -1.67346858995067    0.32241721142148   -2.10682047480969
O          -1.11618523888689   -1.30836682870264   -2.64252581053010
H          -1.08195358865210   -1.69166138303213   -3.52005029271049
H          -0.17002492083371   -1.13387434704026   -2.38108790031762
O          -2.54955396132992    0.02982097050686    0.62583734367743
H          -1.83046750481593    0.36111761149274    1.28295368092047
H          -2.33953350842295    0.55360983469457   -0.27263668727836
O          -1.53071330181480   -2.13799756842779   -0.08845963950793
H          -1.52937938282593   -2.07371955753863   -1.06148420720021
H          -0.60315769639894   -1.92401068276104    0.18068630240673
H          -2.24504895152704   -0.96053009125040    0.38580175776250
N           2.55751103677145    1.41785442757060    2.07293800528492
H           1.66740125552647    1.20197258274057    2.50831214906168
H           2.53528795800337    2.38542734055592    1.77709301874650
H           3.28975547126562    1.30814944689126    2.76253922363479
