    26
        -50.46408164  Gyration_radius:  2.39713085881 Dipole_moment: 2.451
 S          -0.34544141000567    1.30884389568427   -0.49766304026336
O           0.19034183174454    1.03021575245498    0.84471815879724
O           0.11188602645379    0.27157503030303   -1.43288425788291
O          -1.78558668006899    1.42825004214064   -0.48957305659712
O           0.25134450623986    2.65601655053924   -0.96037487337846
H           1.23642681261055    2.53490652478838   -0.81826417439983
O           0.23701580695392   -2.50937982792155    0.73470285964486
H           1.06110361503972   -1.93215401753410    0.51953086201043
H          -0.31293639901711   -1.92582264829177    1.42932180663096
O           1.94262877579357   -0.72212187103492    0.09738697310614
H           1.51238610436294   -0.04687136593397    0.66852100358580
H           1.49766337199104   -0.52510666899539   -0.75530761428340
O          -3.06983433674732   -0.68192541292946    0.23171986334702
H          -4.01404754168021   -0.52155791314813    0.20151705248462
H          -2.63684725064677    0.16798753754925   -0.05830027675274
O          -1.09623860165782   -0.88300712240102    2.09043408698837
H          -0.64393910909889   -0.06393932052640    1.77067059954813
H          -1.96333974184936   -0.88058512851779    1.64466480327197
O          -1.19798331182982   -1.98613618900377   -1.24364349729212
H          -0.74371922446274   -1.14449621358346   -1.49649864339950
H          -0.36279144846912   -2.44181179970075   -0.14119615935469
H          -2.03952880458241   -1.70379169930676   -0.83979310343556
N           2.79526345552994    2.19516303902448   -0.45648836384422
H           2.97848225818886    1.19811758711619   -0.48171810162346
H           2.93360632933954    2.51538134728934    0.49354849126008
H           3.46408493581088    2.66224990140833   -1.05503140881189
