    26
        -50.45643277  Gyration_radius:  2.40092261569 Dipole_moment: 3.630
 S          -0.53981846651461    1.07996385955303    0.61447932178589
O           0.22595085378757   -0.01817059661658    1.22423667407634
O          -0.43911031443574    1.02076836751226   -0.84071094023327
O          -1.93133297161107    1.02070903588527    1.05704926785573
O           0.06445699208249    2.40247767939152    1.09164942786674
H           0.93075744839725    2.46703076665174    0.52054560824258
O           2.71843790494792   -0.36625547349555    0.44225602806594
H           3.22375730227721   -0.69170517546833    1.18846284732384
H           1.79292453896998   -0.26828180049065    0.76274943505146
O           0.75800578369567   -1.32220937506444   -1.54815102029374
H           0.47405755877395   -0.42979417768545   -1.28836854928246
H           1.59479804312914   -1.45662324021584   -1.09511442674377
O          -1.94069003395923   -0.83574314747485   -2.00222626962510
H          -1.50593922480635    0.01305417822542   -1.76458165911385
H          -1.19619836877684   -1.44723011393663   -2.10872159841793
O          -1.06231092664077   -2.25416392205082    1.51820467831166
H          -1.18525249161871   -2.36284384036290    2.46313950463137
H          -0.47929963292815   -1.45729052875966    1.40526360785823
O          -2.94713941106568   -1.10111844036149    0.27509554112636
H          -2.29128600054560   -1.72381606251150    0.76261110404727
H          -2.65099993485739   -0.15176089423334    0.63056835832314
H          -2.63660500033532   -1.08209403598445   -0.73443733764090
N           2.08948506466724    2.30857433726917   -0.45442863823670
H           2.58053218034553    1.44705321586699   -0.21812939496705
H           2.76057090355653    3.05491298381931   -0.57825482030510
H           1.59224820347644    2.15455640053432   -1.32318675970300
