    26
        -50.45643274  Gyration_radius:  2.40090044967 Dipole_moment: 3.630
 S           0.29187428106618    1.26792878606399    0.37740923884199
O           1.05756211075424    0.13864312582841    0.89669782326914
O          -0.57908386821697    0.83049901718761   -0.72450036607815
O          -0.51006359875671    1.89707075627899    1.42464810099253
O           1.26986607702546    2.30756000160052   -0.17444000153550
H           1.94701434789325    1.71669745168491   -0.69716097317223
O           0.10080103250680   -2.15951089633836   -0.21072577477736
H           0.53472095107852   -1.33351084414822    0.06125358569142
H           0.07177601605369   -2.11866833519883   -1.17041356367386
O           0.50630008141225   -0.57660045689648   -2.67055931107266
H           0.06343366007151   -0.05193949986681   -1.96523659208107
H           0.05232450259748   -0.35989407977935   -3.48604672618169
O          -2.91709306531733   -0.05469820508610   -0.02030268515889
H          -3.54771322050025    0.59937755128049   -0.32742149655164
H          -2.03305509016931    0.22433894499284   -0.37848194885698
O          -0.29901481800871   -1.52047419159114    2.46442754188357
H           0.38268788884419   -0.91510958794700    2.09733021263978
H          -0.42809175489591   -2.16922762052296    1.75591709153880
O          -2.08770660600775    0.22849614864796    2.35864191701709
H          -2.57376187756916    0.02975431080507    1.47559186149779
H          -1.42050293557202   -0.57594782755337    2.51259393432984
H          -1.44420935270054    1.01815346955618    2.07991982535463
N           2.77886203059139    0.61645520380217   -1.34178350408693
H           2.18286618748949    0.12272036683893   -2.00527767444583
H           2.93689056625308    0.00417507912308   -0.55065822985786
H           3.66331645406846    0.83371133124022   -1.78142227551743
