    26
        -50.45643274  Gyration_radius:  2.40087134611 Dipole_moment: 3.629
 S          -0.97618092524507    0.74374658970856    0.57367054067610
O          -0.40469697095144    0.88730931609789   -0.77425459408256
O          -0.54118795512092   -0.51240934715334    1.17706882391935
O          -0.60045431090392    1.89096865412533    1.39727306217721
O          -2.50069391099865    0.71960832777425    0.44291217202172
H          -2.67558113096253   -0.24083437424869    0.08528528620099
O           1.94892458634894   -0.52049507994333    2.09897057299015
H           2.29181183720541   -0.98678459906394    1.32146052036511
H           0.97489654588110   -0.61888821010720    2.01219968975882
O           1.94599813042947    1.98651985077940   -0.88260300701340
H           1.07067050839941    1.51879142556051   -0.93467976090380
H           1.81539279853386    2.84324743257110   -1.29341853839522
O          -0.67112664625216   -1.13092306145886   -2.44785135374265
H          -0.55244368505630   -0.35469171799100   -1.85434145546209
H          -0.75305550552168   -0.77621910731507   -3.33416068986466
O           1.39103893442328   -1.62134958586884   -0.39135311264911
H           0.60243861475850   -1.30287692062599    0.07899042713767
H           1.11434295957230   -1.70639544458760   -1.30770680996863
O           1.86501259560545    1.94158073453728    1.65094374334269
H           0.81128581718489    2.01207636773689    1.65575607945405
H           2.03483565823335    0.93198655788647    1.91142858408432
H           2.07761180997818    2.01617624098278    0.64856437450802
N          -2.62828836112363   -1.68490968905859   -0.39460319473546
H          -3.48299920659163   -2.20828285730289   -0.52978196546755
H          -2.08174167168332   -2.11579731057314    0.34115721835673
H          -2.07581050613932   -1.71115420244673   -1.25092660271417
