    26
        -50.45289437  Gyration_radius:  2.64774532624 Dipole_moment: 2.994
 S           0.49706345136672   -0.31416765575513   -0.56714040822747
O           0.59706002538782   -0.19708154356018    0.95029456625678
O           0.99144239750367   -1.60625168063161   -0.97656293631721
O          -1.01530738793808   -0.25874501596902   -0.85585780956671
O           1.13748005606179    0.82170101223189   -1.15935337516547
O           2.33908120027225   -3.12581527986593    0.82463411619544
H           1.96486553785590   -2.68007089411523    0.04336693209703
H           3.23282801967400   -2.79633647971791    0.92759012531659
O          -1.80470710971832    3.51744261747350   -0.41742734469910
H          -0.98590680615282    3.33634267465846    0.12010982400102
H          -2.55275284317670    3.26253309975574    0.12468336992931
O          -1.22555383604449   -2.99835295353913   -0.29089233200175
H          -0.42077266078979   -2.69205319366141   -0.74289045847517
H          -1.90753673819266   -2.36426278169687   -0.52670370329958
O          -1.18512483738196    1.77447216338921   -2.28288516262815
H          -1.18549713095768    0.56655078322552   -1.47242926305920
H          -1.49977734850893    2.50249653975387   -1.67990422884959
H          -0.22645102626528    1.87528036692698   -2.34242239217356
O           0.03047837585012   -2.38816377896320    1.96513259088731
H          -0.57733856467743   -2.76409151950512    1.28393451825046
H           0.88667112013265   -2.84030925570274    1.81222194097340
H           0.32628709966114   -1.11320199113948    1.43873469064366
N           0.40789309653725    2.74590642919806    0.86993514075843
H           0.25479647072262    2.14582289003801    1.67202580404442
H           1.10129356406100    3.43648098128708    1.13122378306417
H           0.81948588470536    2.15387448588194    0.15058202202416
