    26
        -50.45510216  Gyration_radius:  2.47445123672 Dipole_moment: 3.179
 S           0.12205051611432    1.35005476920581    0.43303988448328
O           0.68899497371156    0.60540496875862    1.54976818137394
O           0.77468760987280    0.99019462402944   -0.82220594301862
O          -1.32438321399011    1.15451375873335    0.34670436228932
O           0.34780417571886    2.86520707628194    0.68075457176344
H           1.33773449449943    2.91302313156633    0.72902807437112
O          -0.40441442283042   -1.73037168513856    1.69315107578162
H          -0.03172827240802   -0.80800799937450    1.67546535248547
H          -0.25091993543904   -2.05993694461921    2.58005121395803
O           1.05469598383140   -1.75011157828325   -0.72450114665174
H           1.18446496709950   -0.79451727638343   -0.60890527372468
H           0.62508839507111   -2.05041390348514    0.08627703911048
O          -0.28486658821349   -0.55503630421872   -2.71605051089304
H           0.16593897214519    0.20791380151750   -2.29773141982763
H           0.15242692209549   -1.31715626573619   -2.28497546904634
O          -2.65439319953291   -2.09483524544152    0.28778116600961
H          -1.81752843018289   -2.01065521338876    0.79750323762864
H          -3.36110233195164   -1.85034247653623    0.88879984224486
O          -2.39063435187959   -0.20913607258485   -1.42306813232841
H          -1.56945046934072   -0.40842740626680   -2.07116884549084
H          -2.55444809736437   -1.03984689033149   -0.85403961265777
H          -1.99307181065269    0.46721408486449   -0.72354435371257
N           2.87799483349645    2.23780426765946    0.71458652968531
H           2.59677270691990    1.47505447121825    1.32233339001927
H           3.80921318699890    2.54155116947605    0.97035277535265
H           2.89907340620960    1.87085914847786   -0.22940598920572
