    26
        -50.45510219  Gyration_radius:  2.47440922812 Dipole_moment: 3.180
 S           0.31456316680068    0.16886831939355    1.37748997791149
O           1.43273888142172    0.01336382566224    0.45199601208471
O          -0.45091849326095    1.37136526049093    1.07562435037425
O          -0.53994129050551   -1.01758584314245    1.37144166879186
O           0.88713069710685    0.29229805533793    2.81451685561018
H           1.44450438521310    1.10956070581277    2.73650265868989
O           1.53026260539369   -1.72986592086215   -1.55995888222904
H           1.80565323440028   -1.22663004304420   -0.76544102958774
H           1.16748206808053   -1.02696707821888   -2.13627124516719
O           0.40806576448089    0.66071799939366   -2.02364827131455
H          -0.53580607192975    0.82613219940179   -1.90614924841117
H           0.79071577336668    0.70465616438791   -1.13203202457160
O          -2.59044621117359   -1.68686945360850   -1.39931037178112
H          -2.43330220110672   -0.72990945562573   -1.23580664702193
H          -3.32418521403424   -1.93899918862545   -0.83498254155558
O          -2.13679317922262    0.88775415306575   -0.82053658407248
H          -1.53262110068848    1.05388818056798   -0.04766703207350
H          -2.81031524817600    1.56860968422231   -0.77996494562268
O          -0.45998122959845   -2.71858831923081   -0.42548699319505
H          -1.29558723815964   -2.40930481270357   -0.92249051726857
H           0.39166019161712   -2.40782970538875   -0.98425956653602
H          -0.44938701833394   -2.08376734938823    0.41218283587155
N           2.06951282157043    2.42901791966865    1.90201693149307
H           1.16661873806907    2.65628672450636    1.49784767590543
H           2.60094579001093    1.94810727427322    1.18611561895852
H           2.54943038864664    3.28569070365071    2.14827128470996
