    26
        -50.45340951  Gyration_radius:  2.544969789 Dipole_moment: 1.683
 S           1.27406167032488    0.83899051129799   -0.09604707189596
O           0.45824431409539    1.54251142920691   -1.07222806414795
O           0.75605720272646    1.03321241451991    1.26203324557058
O           1.42533536014535   -0.57381598175328   -0.39824802697408
O           2.70746893961968    1.45008517932271   -0.12973854222875
H           2.52563394674303    2.41140534639186   -0.10672542344698
O           0.73116284700062   -2.52333456434732    1.17379291506740
H           1.02847452816311   -1.84557873810522    0.51319321894110
H           1.52624941562647   -2.83956544392800    1.60700493287543
O          -2.73539046619253   -0.30192796414508    1.22549736105232
H          -3.17164697615881    0.49297673760367    1.53775213436153
H          -2.44832866564368   -0.10575889901231    0.27179954271471
O           1.59033156026855    3.81297883373632   -0.45146943088808
H           0.93319593615609    3.14205858841392   -0.72940597729759
H           1.81755186828251    4.31432073077514   -1.23804511303944
O          -1.90852336517919    0.25058048376272   -1.13393030691244
H          -1.11439355185423    0.81630934222206   -1.13308782344281
H          -1.60571742154100   -0.59583316619868   -1.53805323022167
O          -0.56665043624065   -0.70303987454422    2.40735092759870
H          -1.51507620740176   -0.58098670757280    1.96134779596720
H          -0.14744218001122   -1.54198925463163    2.01007979359719
H           0.01510207570423    0.07905996697107    1.98569981611419
N          -0.60973470347867   -1.97513616720525   -1.96249773856458
H           0.24221198585570   -1.53258698679566   -1.62424250213791
H          -0.45860654231900   -2.24842938528049   -2.92489814278749
H          -0.74957115472853   -2.81650642060234   -1.41693429965974
