    26
        -50.45340948  Gyration_radius:  2.54512503026 Dipole_moment: 1.686
 S          -0.46788081938468   -1.45036647675747   -0.11841721567246
O           0.02353135832795   -1.25366046308834   -1.47235774159952
O           0.63523434283886   -1.45234123835650    0.84778219181593
O          -1.48808533378215   -0.48740954495211    0.25861343992361
O          -1.14163441608797   -2.85390523432832   -0.04489123926760
H          -0.47899337732456   -3.42730283594272   -0.48070012390311
O           0.77279990678358   -3.75165963462970   -1.61451802055618
H           0.73026035018275   -2.78077932930346   -1.73630160669326
H           0.51938145285924   -4.14295341373552   -2.45374374241620
O          -1.33655944214929    1.14125782673239    2.27815193451386
H          -1.48170231079998    0.55511128175999    1.49107716770599
H          -1.85672043047948    0.76464170788006    2.99048720720120
O           2.30556918698928    1.87429695827795    0.50273388743484
H           1.76623779978291    1.68800547391658   -0.33674522218707
H           3.18963622277132    1.54778418446516    0.32525387921869
O           0.92671458245142    1.28587910916933   -1.57310639112981
H           0.68688851779853    0.34165608062329   -1.61272360880269
H           0.06374805141493    1.75431628733180   -1.48778705449199
O           1.13805106067295    0.51304746251186    2.24789702636625
H           1.65269143845589    1.13558371442111    1.56924957153710
H           0.20185090171812    0.89661068188188    2.36536443334645
H           0.96552836179693   -0.37747209334631    1.69558766132127
N          -1.58092760074486    2.14159671334228   -1.01905576341735
H          -2.28686022945657    2.38620818963851   -1.70134765078622
H          -1.68906836702530    2.75745651958573   -0.22277867342439
H          -1.76969120758413    1.19439808313431   -0.69772434644556
