    26
        -50.45614023  Gyration_radius:  2.43966801703 Dipole_moment: 1.866
 S           0.87344382629709    0.88648773474302    0.36436623829160
O           1.14296016435764   -0.12577656033617   -0.65049693246669
O          -0.11872281278436    1.85103008674236   -0.13702802599600
O           0.42896186841144    0.28706079991142    1.61420618439220
O           2.18022375517092    1.65392381836744    0.65957529101993
H           2.38538882232102    2.02848428739999   -0.24339448806957
O          -0.19912513016791   -2.21433353707683    2.31576746455785
H           0.16359118180389   -1.32793420547265    2.10886297443416
H           0.34943267936574   -2.57544835297168    3.01314585912178
O           0.08325514010542   -2.76773427369387   -0.36584830953137
H          -0.11774438074602   -2.80265745637711    0.58307549192605
H           0.75950725239549   -2.08139426610564   -0.45355306251653
O          -1.06863500135066   -0.90352162185161   -1.87201337316935
H          -0.99160140981829   -1.80189567535885   -1.48762514613728
H          -0.19655862632159   -0.51216985065490   -1.63666763041187
O          -2.17672442322584   -0.17412739460165    1.89824021113591
H          -2.09205018017916   -1.12236018723791    2.05458656743759
H          -1.26127836174322    0.16899697028477    1.98005059624863
O          -2.31296441591998    0.73241428650550   -0.46601314884558
H          -1.46125210345939    1.33443075269344   -0.34340688533751
H          -1.93521676404740   -0.02070950990426   -1.11352904741885
H          -2.43795923913840    0.32365435894446    0.46821350170886
N           2.12959799195600    2.30716563703054   -1.84401470387115
H           2.58961065961770    2.90006144028955   -2.52317056966345
H           1.16536786397638    2.60254968508990   -1.73722344955467
H           2.11849163312051    1.35380302363466   -2.18610559728486
