    26
        -50.45440519  Gyration_radius:  2.44950166647 Dipole_moment: 2.517
 S          -0.98944218878496   -1.14571845617522   -0.24555745630557
O          -0.96138073468547   -1.31239458061884   -1.75067122087655
O          -1.69364986318770    0.21286652608199   -0.06585853028677
O          -1.73498283070145   -2.19498086454962    0.37754796838818
O           0.36661200968388   -1.02448607654381    0.25425817335450
O          -1.37118155065815   -1.60629248165937    2.95459687738065
H          -2.11113028925584   -1.96954297880563    3.44595652787658
H          -1.45410917154558   -1.95288154300320    2.04372912648713
O           2.11726614007427   -1.15728592567964   -1.81322893919183
H           1.57291743776817   -1.23376574306501   -1.01150385586982
H           1.59716346546073   -1.54958703898615   -2.51732838536537
O           1.36658306011267    1.05269213534066    1.52765751019051
H           2.05318171095801    0.76071432976864    2.13015313830604
H           1.08093155793707    0.25140159294742    1.03651040003374
O          -0.72660811808447    1.02519297880550   -2.52678122057518
H          -1.38547735231177    1.43035875339947   -1.95452318974843
H           0.19287835551488    1.32529814604956   -2.16537229730683
H          -0.84794485134800   -0.33003037170030   -2.16806207591369
O          -1.23200278875835    0.95807448599454    2.26690595019120
H          -0.28325752858397    1.18231198679367    2.16941056339683
H          -1.56770204503989    0.57512455783015    0.91459639020653
H          -1.26626307482319    0.07856945973256    2.70897156596849
N           1.57258410852460    1.65364078101016   -1.51311112378724
H           2.06121719660500    0.77105773149981   -1.66986133049581
H           1.52125807808342    1.80003606486299   -0.51025434248142
H           2.12253927704120    2.39962654067910   -1.91818021357736
