    26
        -50.45340951  Gyration_radius:  2.54471184103 Dipole_moment: 1.683
 S           0.76079257714837   -0.50869985503497   -1.22588001610445
O           1.68670370555593    0.52103926908083   -0.78317898411989
O           0.72066144952235   -1.62527930218618   -0.27607462305784
O          -0.57388001169877    0.00366686865147   -1.48332227206965
O           1.27986474652853   -1.07949561333881   -2.58005701113181
H           2.22774487736173   -1.23408977007049   -2.39220311950790
O          -0.35536738000954   -0.15445382749272    2.98760167147236
H           0.39397273668970   -0.45740813833121    3.50385843194238
H          -0.00178647153150    0.58965399026789    2.39447625719533
O           0.57866230297158    1.63258068513657    1.40985238364960
H           1.08378225800102    1.25178951417633    0.66782964263471
H          -0.19211724230794    2.07232523711669    0.98092255100099
O           3.72305535455000   -0.88667719509674   -1.61584560592183
H           4.35247267863446   -0.33952661561939   -2.09142309755108
H           3.15858566476233   -0.27579966421651   -1.09874593036088
O          -2.74248061586651   -0.80915308588158   -0.30363328897930
H          -3.18872686351020   -1.40905614322674   -0.90430882150973
H          -1.97004746287092   -0.44077275959604   -0.80529602643772
O          -1.11687748433593   -1.88308327099253    1.34672065130408
H          -0.30672025922269   -1.84901946237522    0.66100893432520
H          -0.84980719542150   -1.18144487810430    2.08835062143882
H          -1.88767432263405   -1.48560658153047    0.81268046193225
N          -1.52141600536111    2.40719075457940   -0.11221950983642
H          -2.44187684609464    2.12032076554258    0.19689841401775
H          -1.20397701982829    1.72272303356175   -0.79544676487537
H          -1.61354318099586    3.29827602498870   -0.58256492942144
