    26
        -50.45340945  Gyration_radius:  2.5451371118 Dipole_moment: 1.685
 S          -0.57671960255514    1.29672839563627    0.56745072985384
O          -1.72096029206216    0.41535646274226    0.31382113137691
O           0.17909045402600    0.85152464484943    1.72673631395992
O           0.24424025595541    1.43907019914004   -0.62253138435536
O          -1.15064733334451    2.71265596581699    0.87576044932370
H          -1.52982265137494    2.59458647340852    1.77022663560699
O          -0.28381021429063   -2.98919023638503   -0.25367200998911
H          -0.78473354646203   -3.44653759645737    0.42425368219958
H           0.39850574452030   -2.42192576330375    0.23928802277121
O           1.34773229955136   -1.46995031474241    1.00580921461432
H           0.91738673116187   -0.67676587134278    1.37502405151763
H           1.98357450772280   -1.11637880597888    0.34089849916139
O          -0.14456123711913    0.18927626684837   -2.86780706561955
H           0.07701367260792    0.71082022731761   -2.05356435414925
H          -0.58371180697785    0.79919284875570   -3.46362768288403
O          -1.58960019111785    1.89534654446730    3.34034782531586
H          -0.90619215898763    1.30721865819651    2.95782244459604
H          -1.16619060846702    2.37614574316568    4.05534697336483
O          -1.67375021341036   -1.29450855888903   -1.46101789456651
H          -1.07533199546893   -0.83170350844671   -2.14300761128597
H          -1.10581016846484   -2.05986262030904   -1.00864830279119
H          -1.77401471938420   -0.56556961517157   -0.69526726588292
N           2.69390277745539   -0.12974997439327   -0.92272794802301
H           2.00553298276166    0.61092498407646   -0.80603428737746
H           2.60534436025427   -0.47744316661287   -1.86945031945624
H           3.61353297342773    0.28073861773999   -0.82542985713226
