    26
        -50.45340950  Gyration_radius:  2.54494144703 Dipole_moment: 1.688
 S          -1.28199164296177    0.61273109358355    0.56250651703748
O          -1.69872090952991   -0.31088608652571   -0.49747814421028
O          -0.83381019554487   -0.11177369003495    1.74053007317779
O          -0.29498378524313    1.55824780592306    0.07047884835865
O          -2.53497869522084    1.45223641518312    0.95555289861164
H          -3.07847982042674    0.80098318337294    1.44355246961469
O           1.47410177868031   -1.31788371276645    1.03855594269670
H           0.61982928308468   -0.97614492198319    1.36121433990709
H           2.03701911183705   -0.51496121100992    0.93926836422204
O           1.29854008902166   -2.40121268326655   -1.27478095561045
H           1.41597694954286   -1.98694702513867   -0.35552215070123
H           0.88854552454288   -3.25558496079859   -1.12772057037435
O           0.73556851233622    1.54256274624864   -2.31529952048820
H           0.39400073054835    1.62719463865754   -1.38781397322824
H           0.28158705212031    2.21355213465849   -2.82861581311684
O          -3.30325592753164   -0.57059758788073    2.45649222536502
H          -2.33858759560354   -0.66461463178624    2.31592600653412
H          -3.42788868862272   -0.41128238918316    3.39497028937631
O          -0.24995969309817   -0.81010177039734   -2.42841026617775
H           0.43212479157641   -1.49956835989951   -2.01228051094020
H          -0.93573483108668   -0.62434372872964   -1.63924494761189
H           0.23572980469354    0.07991679992295   -2.52610246593556
N           2.54956927548822    1.12620436206530    0.59496058885768
H           1.59422543352807    1.47641306771487    0.56699025437240
H           2.95729192893083    1.28867875753802   -0.31743480564060
H           3.06428151905710    1.67718178510100    1.26970529603808
