    26
        -50.46009919  Gyration_radius:  2.46635631792 Dipole_moment: 0.823
 S           1.07585376961651    0.38282896715051    0.67880401521397
O           1.83691630652889    0.07809475168553   -0.52232907887711
O           0.00783838869099    1.33886513234861    0.40604795941695
O           0.53503256395726   -0.83103193205819    1.29147375983259
O           2.03115174587307    1.00754275471092    1.73278281009688
H           2.33951839884080    1.81429693216621    1.24638142485861
O          -1.91476325059129   -0.99188340670903    2.23428525586660
H          -0.96303686521155   -0.91788873702045    1.98681154775446
H          -2.00079787317614   -0.56396714101530    3.08696136735502
O          -0.63714813149470   -2.83337405726733    0.08845704638240
H          -1.26139115622747   -3.06221786004408    0.78329087005612
H          -0.03280265625268   -2.16883041291059    0.49897670018776
O           0.41635259098318   -0.35338215720597   -2.61815639261261
H           0.93242170670988   -0.99503083202100   -3.11080173300204
H           0.96487447970537   -0.12743058319747   -1.81452975404293
O          -2.37677704084827    0.42473833724815    0.01861736861473
H          -1.51058676197053    0.90475279685598    0.12202548733650
H          -2.45901548962718   -0.08929489655677    0.85346640150308
O          -1.72643805065125   -1.29847751578703   -1.62644285911902
H          -0.91694423624943   -0.89410479571387   -2.11052282871896
H          -1.33480075100385   -2.00851948526708   -0.99669413467861
H          -2.09671697702223   -0.50653563748592   -0.95175618907560
N           2.35367542746173    2.85536750730706   -0.07254746319771
H           2.70465805856725    3.77917242375942   -0.29284252175125
H           1.34103270239792    2.85692843964074   -0.14478678414201
H           2.69189309098473    2.19938139737606   -0.76697227525306
