    26
        -50.45878751  Gyration_radius:  2.49226661948 Dipole_moment: 3.597
 S           0.65578703457342    0.17566222897883    1.99557206256658
O          -0.58376130276394   -0.23279231368448    2.62634199279856
O           1.43333348056772   -0.96313942993040    1.52070825327024
O           0.47331544339928    1.18381911540033    0.97522203213755
O           1.52321276124940    0.85219561156287    3.13700233642795
H           1.41928714456611    0.22206900311711    3.84184763176017
O           3.13567072831207   -0.57912716983551   -0.46212549816109
H           2.54086602629587   -0.65146676785979    0.31772441009667
H           3.73968186488986   -1.32083569861813   -0.40055385731753
O           1.14674355934552   -0.56272025904708   -2.21827727934310
H           2.00364356530050   -0.57506639302142   -1.72948232928820
H           0.54977523728287   -1.12772875848791   -1.66859955324216
O          -2.44165462468829   -0.42455991725462    0.83675160744498
H          -1.76483130691697   -0.25553089792728    1.54196484600416
H          -3.12285876064613   -0.95133979526472    1.25904700246747
O          -0.31417292698568   -1.74528906347485   -0.35955761562189
H          -1.15007408243688   -1.35582167625510   -0.05806725669409
H           0.31820944159230   -1.60430287587168    0.36859622057209
O           0.24313055905279    1.63159810681392   -1.50653528066915
H           0.66908046903144    0.72377137756546   -1.90959079465244
H          -0.80770988821594    1.50375800794926   -1.56962652103046
H           0.43115311816161    1.55981782448008   -0.51959920289463
N          -2.26984478773230    1.19611396197959   -1.53764225079147
H          -2.56490830015144    0.59578297966581   -2.29709762151263
H          -2.86243405938938    2.01569940003287   -1.52305821200294
H          -2.40064039369546    0.68943339898778   -0.66096513232642
