    26
        -50.45878751  Gyration_radius:  2.49226361584 Dipole_moment: 3.597
 S          -0.79661872586219    1.95152435529995   -0.01365380734536
O           0.39727807383902    2.10629112087196   -0.83681838407483
O          -1.97378103937635    1.65719293239051   -0.80665569140752
O          -0.59747119655965    1.02649695257275    1.07972028901724
O          -1.05932135614094    3.36847672555928    0.64682310125113
H          -1.38499177817067    3.85945759897338   -0.09987797632930
O           0.49971351088414   -0.43819268308245   -1.68303224453659
H          -0.41190349321029   -0.74702771130575   -1.56098901614929
H           0.47477275362529    0.52255101785531   -1.52072687818185
O           2.75147797118214    1.65413416846694    0.27238538783436
H           3.37276964530026    2.10299989720751   -0.30316980112523
H           1.85737977717206    1.87777833767489   -0.07077939367055
O           2.36777703787913   -0.96634801524561    0.11110701371674
H           2.69920511235049   -0.04360557241698    0.22089261259850
H           1.75722284166908   -0.91039029276610   -0.66468094960071
O          -2.18015238515005   -0.90093160165946   -1.13007755352194
H          -2.78535136191066   -0.99763093324580   -1.86781266874078
H          -2.16661528676820    0.06981020548657   -0.92645558417549
O           0.62803285075126   -1.04252401161609    1.87337101776185
H           0.18040737314995   -0.16064903981960    1.68239277045660
H          -0.06628102993026   -1.75761000251103    1.51122051322813
H           1.45271592853235   -1.06150691226575    1.17509324426646
N          -1.06811818584242   -2.65740044459914    0.86294428106363
H          -1.75056720615304   -3.04187893282074    1.50289359069990
H          -0.64273992473630   -3.41718083822768    0.34717646254634
H          -1.55483989651962   -2.05383632077897    0.19870967442006
