    26
        -50.45878751  Gyration_radius:  2.49226453501 Dipole_moment: 3.597
 S           0.59049539117195   -0.89348304023531   -1.81555671472289
O           0.20702211392057   -2.05297144219751   -1.01838572573624
O          -0.50651289829737   -0.39718400085323   -2.62268174383169
O           1.22888266532527    0.13435438965313   -1.02384583052362
O           1.68587984623336   -1.40909516163167   -2.83891890641029
H           1.14826946783375   -1.90806596509730   -3.44446655480379
O          -1.54671009581012   -0.76155916337504    0.54928823877166
H          -1.02020764901967   -1.32977587425711   -0.04224949514029
H          -1.77858477895707    0.01941918312740    0.02239288561327
O           0.26447523154746   -0.61979523655647    2.46947840710290
H          -0.54205960888753   -0.67409105017144    1.90000133157556
H           0.81309842614418   -1.38691190897689    2.17983019996353
O           1.55823834746215   -2.55434623356277    1.19517723326013
H           1.13508559597822   -2.36328125966361    0.32821172358567
H           1.37765436028994   -3.47799290889904    1.37688876128569
O          -1.87653673508302    1.31975466772590   -1.25654044666078
H          -1.30041966973344    0.74218801771829   -1.82089081019299
H          -2.70999862014157    1.38455305550650   -1.72665931945894
O           1.38098251593536    1.22848934995247    1.25482717365179
H           0.95056731589352    0.45360938883540    1.87316107074754
H           1.46390226007705    0.78838651543639    0.35261870534770
H           0.60796296951176    1.94070740391803    1.11420940387102
N          -0.56505992985142    2.81971444410663    0.82288298175474
H          -1.02212655273364    2.37272425570619    0.02684019940854
H          -0.31607797000832    3.76364561203294    0.55813007729685
H          -1.22822198880025    2.86100699175858    1.58625713424489
