    26
        -50.47039611  Gyration_radius:  2.41536169069 Dipole_moment: 4.723
 S          -0.74057943753502    1.88146694101377    0.19574856531804
O           0.22895315453645    1.70750038223709    1.28085476425741
O          -0.07062072563943    1.88939535311570   -1.09481825301644
O          -1.84340467290194    0.95723563985454    0.28026560921743
O          -1.35614094768682    3.32668678690966    0.38832018273725
H          -0.61113833114920    3.89308456531739    0.21930876745083
O           2.36685402320402    1.18723073696277   -0.10268228638179
H           1.99650314013988    1.62019144556726   -0.88269418719392
H           1.69480902997847    1.39182057241611    0.58764612996971
O          -0.07591838711011   -0.41079021309393   -2.44650302538532
H          -0.13522439296903    0.50666619995461   -2.10436063834985
H           0.98632052864400   -0.99210836527211   -1.55783411882510
O          -0.02231589995147   -2.29778013807559    1.10375774871434
H          -0.35475460339336   -1.54114189677481    1.67241794808206
H           0.05284207586158   -3.05238044293882    1.68893381236147
O          -0.95189040921381   -0.30176090381730    2.48471661417192
H          -1.77350847039453   -0.09170800968461    2.02160848870241
H          -0.38024948539792    0.45608962274045    2.24327762695947
O          -1.92999861299585   -1.46931301269254   -0.88266866992481
H          -0.87859447932564   -0.86221694921656   -2.09201581820275
H          -1.41442303746138   -1.95873703848225   -0.22774910289121
H          -2.08792947717368   -0.59183130370097   -0.48739430542425
N           1.68047251927627   -1.27400763641617   -0.76206553811089
H           2.08481053883891   -0.35419102464001   -0.41585963208929
H           2.40722982152279   -1.89273086219158   -1.10303339629546
H           1.12789654830329   -1.72667043912068   -0.00717729584458
