    26
        -50.45878751  Gyration_radius:  2.49226408652 Dipole_moment: 3.597
 S           1.45683162537335    1.29323803319176    0.80523490232347
O           0.21907665991831    1.99464999461433    1.12606093446082
O           1.88892636424816    0.42499501434496    1.88256668926335
O           1.39807138792304    0.62781249205181   -0.47716826972841
O           2.57211957116060    2.41204780007822    0.67334969062960
H           2.69947167809387    2.65007373328727    1.58538674983188
O          -1.30993443237459    2.81333254171405   -0.86615417457848
H          -1.86194085105776    3.49247468440917   -0.47525537939750
H          -0.67145199449559    2.55000895485335   -0.16601750865180
O           0.80028118159244   -1.90490150046704    1.60397113635691
H           1.30059208712047   -1.05033035222758    1.66212781418989
H           0.89641279720038   -2.31503596466122    2.46560845920484
O          -1.34153665726947   -0.18709807789852    1.19983029411836
H          -0.83423927626092    0.63824786514205    1.30682042340302
H          -0.70817660273696   -0.90484631720555    1.35798682520682
O          -2.21364258352095    0.34648826978565   -1.23784573544349
H          -2.06474257504729    0.06466420236563   -0.30181221108786
H          -2.02456390827112    1.31474055054485   -1.22840981124158
O          -0.09055092187643   -0.52731065595689   -2.16900123372551
H          -1.05858479947138   -0.15623886956786   -1.86360197440010
H           0.55240152172039    0.00721285317302   -1.60736300672717
H          -0.02132432868426   -1.50497752040147   -1.76408315643832
N           0.07852209256447   -2.80550730300090   -1.03456919868446
H           0.73520603751268   -3.45717153632357   -1.44346854756754
H          -0.81470048483674   -3.26910083750070   -0.92748404998125
H           0.41747640147365   -2.54746804434480   -0.10670968132962
