    26
        -50.46009921  Gyration_radius:  2.46632088139 Dipole_moment: 0.821
 S           0.26558714671574   -0.60889106725964    1.15059353642176
O          -1.11509133866667   -0.47429966088076    0.69824519109171
O           0.98947594121372   -1.59504604125017    0.36427993407489
O           0.94099637702347    0.68913259197258    1.13338301739192
O           0.24907994369751   -1.06540963110095    2.63554505577385
H          -0.22534807831903   -1.93210824639282    2.55635668205150
O           0.62104525969547   -1.43049158094957   -2.17225701233743
H           1.45930569523482   -1.71856855623302   -2.53982455655205
H           0.71453987134460   -1.52665413104163   -1.18251953207792
O          -1.69034611198288    1.46915365393416   -0.90290700510391
H          -1.60225414967649    0.67013518704708   -0.31534357797722
H          -1.34226222225982    2.20438168765834   -0.34955865368694
O          -0.33970760511353    2.96806912300024    0.84632807465473
H          -0.77168731862631    3.24253378762313    1.65605187701579
H           0.14375625920518    2.13642521470587    1.06353808592306
O           1.97608387019940    1.91669026758558   -0.92889194383956
H           1.75372013251999    1.36331788576679   -0.14171134506722
H           1.78718226085176    2.81974914771117   -0.65749177110139
O           0.15767644097642    1.05047721917118   -2.48663342337238
H           0.94164105800514    1.44797177926932   -1.95601910223683
H           0.29744566176606    0.03451507672534   -2.45018575330473
H          -0.72903227526284    1.25233732248043   -1.85999083445348
N          -1.02841675356049   -3.12757612069005    1.69061824402404
H          -1.59860576264671   -2.45241304164729    1.19091360872647
H          -1.58406084489394   -3.95031793255585    1.88934026204269
H          -0.27072344745356   -3.38311393466027    1.06814091190492
