    26
        -50.45705155  Gyration_radius:  2.47206220832 Dipole_moment: 1.719
 S           0.57877554933826    1.37267142418651    0.40498644688742
O           0.50825816229860    0.06921921071422    1.13931364940983
O           0.14544029602076    1.16741331054954   -0.96422349267847
O          -0.19013452284086    2.37137193230664    1.11396389380841
O           2.05757423654104    1.78843476988612    0.41052212552303
H           2.46994762485496    1.21077209153601   -0.33083818583870
O           1.70582195693514   -1.98741071333850    0.02869107084678
H           1.32006006927101   -1.21643020089098    0.50826924975153
H           1.75660967381640   -2.70158969509097    0.66552696361068
O          -2.55480629211532   -1.47710446864522   -0.54303935924745
H          -3.10618932653213   -0.82844014804591   -0.98590311365023
H          -1.69480796963485   -1.50864402741153   -1.06858684868326
O          -0.29051000444778   -1.29507011078095   -1.76024978354009
H          -0.14639869282978   -0.34179869057826   -1.55526436278064
H           0.40384868669989   -1.76268106667368   -1.26885666888617
O          -2.65767938290791    1.84115689677088    1.56864010834696
H          -2.88188780109070    2.31048222349248    2.37484257848187
H          -1.74485780959697    2.15996316270399    1.31608762985386
O          -1.82351888418571   -0.54766661263299    1.67947990419347
H          -2.27256171963430    0.37773039379786    1.71412574546131
H          -2.16267854137905   -0.99894087593021    0.79553444404964
H          -0.79642188661040   -0.32023243031926    1.50549241225210
N           2.83596838701694    0.24848990226177   -1.49107906632392
H           2.74022977711356   -0.70139638131555   -1.14529074211865
H           3.72040556301732    0.34021144698721   -1.97226186045078
H           2.07951283088203    0.42948868645909   -2.13988273827925
