    26
        -50.45705158  Gyration_radius:  2.47204729395 Dipole_moment: 1.717
 S          -0.46482529161615    1.46735505535169   -0.11754837523498
O          -1.12431502116575    0.26149616692686    0.47753559195530
O           0.89950423466881    1.13020403720547   -0.47746874942799
O          -1.25452160738813    1.95468539071430   -1.22667329905858
O          -0.44743137023297    2.53524416581900    0.98656475712541
H           0.33896183105784    2.24992548489928    1.58115331100662
O           1.82184658506243   -1.21385335868012    0.25889897579024
H           1.38076515862428   -1.31265293937683    1.11794258059747
H           1.56696868945545   -0.31453299482369   -0.05372726558057
O           0.54537846404898   -2.49278960940041   -1.57861926074361
H           1.09913774034315   -2.09320475084741   -0.83663422259849
H           0.93180800165684   -2.16821186138271   -2.39487449459607
O          -1.75674398161760    0.29970832204451   -3.12019420103340
H          -2.59526164374470    0.57726052477990   -3.49485936647250
H          -1.49396188718033    1.02273158841839   -2.48233551715436
O           0.14121199977234   -0.93798027150521    2.44147411861031
H          -0.39441591121427   -0.46068984193160    1.76432852563396
H          -0.45107653218468   -1.56484548780431    2.85906593882354
O          -1.70277868674549   -1.40817938392293   -1.25086006355186
H          -1.80523076873770   -0.80908110008246   -2.08143615370861
H          -0.80543787259713   -1.93440988585008   -1.38507583492443
H          -1.50931888113720   -0.71398962299724   -0.46503769792546
N           1.56421258859697    1.61943656969050    2.29344012891249
H           2.17665561014166    1.44249441742713    1.50631689778748
H           1.27133952540452    0.72638194201226    2.67774472141840
H           2.06752901673306    2.13749743331563    3.00087897434940
