    26
        -50.46067668  Gyration_radius:  2.43748155065 Dipole_moment: 5.095
 S          -1.30958487167314   -1.38903356331400   -0.34280383397472
O          -0.81863801284110   -2.22667208199150    0.73186953241885
O          -1.45214708412842    0.00251604882961    0.05417927631347
O          -0.55258675512962   -1.53235870122180   -1.57173141950149
O          -2.78745400727198   -1.88092363680466   -0.65522554798311
H          -2.66845534514003   -2.81358912918745   -0.80192359335347
O          -1.28493012351315    2.26067909591906    1.45182502530510
H          -0.66687614194158    1.85617737148187    2.07538608265964
H          -1.72906346505340    1.49949693244672    1.03902716033368
O           1.63537005781571   -2.65094976680846   -0.21399981254841
H           1.39294647118260   -2.56918901321641   -1.14160427796258
H           0.77862826243138   -2.62674954193072    0.25434692555787
O           2.38794584295518   -0.13816098364979    0.37713492626632
H           2.34796312042092   -1.10567984098848    0.21641880568179
H           1.76779627937722    0.01727832884541    1.11203165691770
O           0.25257689788665   -0.02158171889495    2.10752193554774
H          -0.37423319528121   -0.14328587863742    1.36573774425487
H           0.26516062027850   -0.87430111144114    2.54915216070527
O           0.99028776629334    0.58831675731347   -1.69263261607913
H           0.37523743141882    1.74832776019337   -1.21619058791712
H           1.63475281715553    0.34344750543017   -0.96504631277434
H           0.36029886801464   -0.16887830881420   -1.73832628108689
N          -0.03701408568830    2.74416245215926   -0.84064088240756
H          -0.49867741757562    2.58982567538297    0.10541593279926
H          -0.73260449087364    3.07929730995017   -1.49890057299209
H           0.72330054088005    3.41182803894799   -0.76102142618336
