    26
        -50.45705155  Gyration_radius:  2.47205448173 Dipole_moment: 1.718
 S           0.55057744143773    1.31404102522543   -0.59423180569762
O          -0.77847794785458    1.30652947867857   -0.01264153817329
O           1.20387534559617   -0.00849881233678   -0.33475830685809
O           0.56185251154609    1.59072450877027   -2.01359654880510
O           1.41076078951292    2.36519951564447    0.12336095322105
H           1.12215209715296    2.27938985593267    1.10453480086950
O           1.22501537893660   -0.85645682935269    2.15071891996337
H           1.30516401583106   -0.52559386001013    1.22478202894980
H           1.82329898040947   -1.60154377012629    2.22218554762377
O          -0.51934542383790   -0.15229179981957   -3.55286594627677
H          -0.19675233644379    0.61789985845753   -3.00383060647065
H          -0.05617976467989   -0.08512929092909   -4.39040414710494
O          -1.45793550080611   -0.74465663761971    1.47680377040877
H          -0.60872300071555   -0.93794063148271    1.90545475386496
H          -1.29152224358111    0.06564264055023    0.94083500604299
O          -1.84342291590835   -2.30572483414929   -0.53718675220656
H          -1.73840872927067   -1.77989352111988    0.31680216229049
H          -2.58358801327580   -1.90588304308467   -0.99890401276422
O           0.27874677754427   -1.78228729729929   -1.78645838978792
H           0.74075587256530   -1.05537887444884   -1.15794403369870
H          -0.58738732395541   -2.08164926960938   -1.27632418373112
H          -0.04498190920572   -1.23182928547838   -2.59364423133971
N           0.50693300440826    1.96344674284523    2.49297342676761
H          -0.47955133529168    1.92998419300111    2.26567588151860
H           0.65115169157986    2.59215654880807    3.27150112911910
H           0.80599251829991    1.02974339896008    2.75716212227820
