    26
        -50.45705152  Gyration_radius:  2.47211702256 Dipole_moment: 1.720
 S          -0.69225127331008    1.32305766156807    0.39176426294172
O          -0.69176035462725   -0.02694493234248    1.04039385157918
O           0.27235561226925    1.32671486119001   -0.69179151669504
O          -2.03517352711904    1.66080881847707   -0.02502327796847
O          -0.24281874504019    2.31806901771771    1.47231326480972
H           0.77608284759306    2.19751902816050    1.49788293306545
O           1.83112928288715   -0.76774703619123   -0.95905955569014
H           1.29684007978277    0.06014882206047   -0.93433194863847
H           1.96878151280070   -1.00275481233570   -0.02733561325898
O          -0.01417067179593   -2.22911625949390   -2.00841978799475
H           0.78184411928411   -1.74375242708575   -1.62427307732666
H          -0.20969936878143   -1.79061942391247   -2.83921687497722
O          -3.21972753244063    0.01720662359562   -1.59743546326153
H          -2.77275256201122    0.75354255145561   -1.09084789102837
H          -4.15687764644477    0.10792023264167   -1.41299878847364
O           1.63533057758075   -0.98286088876055    1.79433540721528
H           1.49307304200356   -1.74634933380969    2.35565358537003
H           0.74164331019987   -0.61429455461571    1.59758923782187
O          -1.84255023769789   -1.70933278284261   -0.35757357905948
H          -1.36475393719455   -1.02342627168113    0.30447242806235
H          -2.49071750917120   -1.11567581075184   -0.89300771084159
H          -1.09888960181806   -2.00687057952499   -1.03452564024222
N           2.27573473459426    1.83833124632208    1.32973660259045
H           2.40308949532344    0.88612340344601    1.65851473089308
H           2.99128036914323    2.42828946898816    1.73239296018293
H           2.36495797399590    1.84201337770545    0.32079147092345
