    26
        -50.45705159  Gyration_radius:  2.47211047334 Dipole_moment: 1.719
 S           0.09560042384802    0.68259953731414    1.38129433298960
O           1.31067900281100    0.21257374446135    0.74312451507306
O          -1.04723639758773    0.53149982165442    0.42513014930356
O          -0.21268130105638   -0.00072564128248    2.61793819711083
O           0.22209843901557    2.18724634145602    1.66372507757366
H           0.71079037306723    2.54455193598318    0.83498852599148
O           1.19951987715692   -0.41326251569286   -1.80319583329319
H           0.56951403732316    0.25411182831394   -2.11940969653737
H           1.33939992243472   -0.19747622205478   -0.85167422034116
O           0.01561476460974   -2.66329546301908   -1.38198679001340
H           0.66191341078255   -3.17437637655312   -0.89012398756258
H           0.48951797043004   -1.81711151652329   -1.65802111044427
O          -0.73625278843440    1.55890579545726   -1.97178353985095
H          -0.91276099542024    1.23766029522106   -1.05588566842928
H          -1.58285787931993    1.56882497057612   -2.42050623408032
O          -0.80384301061227   -2.49130861771213    2.46236898959087
H          -0.46332153333507   -1.56267301002811    2.60504527801084
H          -1.39353855267973   -2.66671007471732    3.19854857457499
O          -1.74882480568338   -1.82860588323152    0.20796557805150
H          -1.45412994100197   -2.20974754247109    1.11744992508309
H          -1.51521164369262   -0.79111427629623    0.28477053424620
H          -1.07516263445099   -2.21438660705384   -0.49731495313068
N           1.45829335454020    2.82071975920898   -0.49593611487345
H           1.93320261940392    3.70106939761049   -0.64306487079593
H           0.80341606982508    2.66283979386387   -1.25568833538914
H           2.13626123802796    2.06819053551265   -0.49775831286129
