    26
        -50.45325125  Gyration_radius:  2.59676992024 Dipole_moment: 1.555
 S           0.85437480837576    0.42444776832621   -0.45873800700051
O           0.77909411680204    1.26383120710546   -1.62202557632117
O          -0.43531033038425   -0.39756662859038   -0.33266386656675
O           1.96181959414616   -0.47337878060413   -0.38282436929807
O           0.84227411857190    1.36000246024306    0.77040253222399
O          -1.20708479509562    1.19576371619238   -3.41740916184971
H          -0.38909935504188    1.27629037105888   -2.88918499655538
H          -1.03493829820117    0.53399039856871   -4.08833900184376
O          -0.85555752108198    3.20883232696042   -0.36651507809346
H          -0.21518000652924    2.74331945978501    0.19003858265510
H          -0.41193355890341    3.33724756927473   -1.21034626388690
O           1.98702245270703   -2.17125374552968    1.71747953810364
H           1.16543776069516   -2.68436735374989    1.53676316375014
H           2.18370154001235   -1.71401729415073    0.88091787191311
O          -2.31865160145442    1.08085218623685   -0.98661718471082
H          -2.19813620490516    1.10229917254264   -1.95932151570348
H          -1.27718975794388    0.20590290808261   -0.58000093610323
H          -1.99515422837134    1.96044879813347   -0.67609227568084
O           1.13938588588267   -0.02842601961717    2.82744934637133
H           1.85638994563535    0.33464853120607    3.35208026834229
H           0.94668591431698    0.79070496038365    1.63579968768176
H           1.46954479067393   -0.92617476919366    2.47803768186019
N          -0.46192250152580   -3.10746403767051    1.00360775545191
H          -0.62395456572044   -2.26179594612677    0.46485280338668
H          -1.17051280173511   -3.15405918444658    1.72479706574797
H          -0.59110539092950   -3.90007807443977    0.38785192613638
