    26
        -50.46067662  Gyration_radius:  2.43740355477 Dipole_moment: 5.090
 S          -0.54908846634588    0.03045159546179    1.86045956459592
O           0.48748032655675   -0.89781967742646    2.26221758697718
O          -0.05279029016687    1.07389322321157    0.97774111262781
O          -1.72744541024533   -0.62438639286145    1.32523478548226
O          -1.00645773409741    0.79011094233813    3.17865740309803
H          -1.22396338348166    0.07339683533076    3.76560145372906
O          -0.30810651818682   -2.99498539608573    0.82493754983134
H           0.09649325827537   -2.34609246037830    1.43255828492513
H          -1.24160269452429   -2.76160207656277    0.82729963444904
O           2.10930497501940   -0.20277424966527    0.07432462643762
H           1.31646670472388    0.17912013613227    0.50280500616808
H           2.47901191069667   -0.78809379621205    0.73997741598829
O           0.53553747592320   -1.85664658471150   -1.46009685699249
H           1.23365711350997   -1.29445500569341   -1.07874284496250
H           0.29517497438633   -2.47956001695910   -0.74052848735138
O           1.53382441052817    2.47402801595578   -0.63610472875372
H           1.02878052576569    2.28940157408952    0.17494778291580
H           2.16584328916649    1.74422066998951   -0.68505443747795
O          -1.56361646812014   -0.33168809053845   -1.27873231532026
H          -1.71608023758532   -0.37753865359744   -0.30566635876430
H          -1.03818523054768    0.90325897902300   -1.66593926138390
H          -0.81421365491941   -0.97425535849450   -1.45262983364848
N          -0.61175358220957    1.87716938588680   -2.08116526284605
H          -0.41943585423631    1.76194929538698   -3.07107465763426
H           0.28075192166875    2.11444319668320   -1.55294936739545
H          -1.28958737155569    2.61845387970512   -1.93807779469562
