    26
        -50.46067625  Gyration_radius:  2.43696679091 Dipole_moment: 5.107
 S           1.92484658057872    0.18042291646947    0.09293124797338
O           2.15357070407682   -1.20142507025574   -0.27554845789588
O           0.92871410457630    0.82537388027363   -0.74717587007090
O           1.64635152258329    0.35732271217877    1.50542464550338
O           3.27961214210494    0.95424096979210   -0.20700862751247
H           3.92178564278156    0.43727656779972    0.26837289887801
O          -0.32667458906702   -1.37675161570783   -1.58589469988449
H           0.23341620262937   -0.64972830239164   -1.24610099488661
H           0.27420331480632   -2.12174537998642   -1.66487953338619
O          -1.47545579540496   -1.70710640235045    0.89136271794177
H          -1.25448995439239   -1.67572384587191   -0.05676567116858
H          -0.70239352496968   -2.13967959721419    1.31413462194365
O          -1.01205163482234    1.19822935776982   -2.53149646585338
H          -0.11100834787479    1.26531063123989   -2.17036567203895
H          -1.16047694131585    0.24581927673521   -2.60445481472277
O           0.96691760795788   -2.34902632177383    1.81585373180710
H           1.13979542433780   -1.62760144811734    2.42866373874414
H           1.46340619843695   -2.09789442884974    1.01318521829634
O          -0.94853619921924    0.71866539610576    1.66712777543559
H          -1.24231036028003   -0.21773555781783    1.46283966124929
H           0.03680012691736    0.68544111962582    1.64516215970314
H          -1.46048023612262    1.47316830993166    0.61031193261093
N          -1.96783185933677    2.07700727199794   -0.21537268945030
H          -1.68773303299575    3.04824022862777   -0.12751470853438
H          -2.97496378475307    1.99097729110936   -0.12393250449563
H          -1.64501330123130    1.70692204067594   -1.15885964018127
