    26
        -50.46206274  Gyration_radius:  2.40748303705 Dipole_moment: 2.091
 S           1.31724662454888   -0.69604400039740   -1.00956057945650
O           0.40596907708734    0.21652332376418   -1.69287864913484
O           2.13281392360501    0.00504653646100   -0.03302856971933
O           0.62638321787678   -1.84042176375751   -0.45508022095699
O           2.31069151770685   -1.25097074261409   -2.10244325849466
H           2.86562054981943   -0.49499266079074   -2.26018015759508
O           0.71674004409792   -1.16976874105776    2.06962747485721
H           0.65832664716723   -1.54668953848067    1.16138624821725
H           1.61346309351065   -0.82487419658322    2.12416493971270
O          -0.73587689529238    0.92658974797377    1.85991723014824
H          -0.23908479470316    0.05930670640577    2.07035836563995
H          -1.29420112128657    0.72637662366980    0.96714300502827
O           0.09894882110577    2.86039918450692   -1.42504499734958
H          -0.85401820472325    2.97250168323985   -1.44120068953937
H           0.26200932249524    1.93235514298637   -1.68426456344637
O          -1.83973296775314    0.37184873165272   -0.30174393145830
H          -2.15078462277424   -0.57018669030086   -0.19710168680677
H          -1.06621192746675    0.30854795018519   -0.90506023180763
O           1.16096466876464    2.25363432509270    0.94029948688405
H           0.03926017601571    1.59350573030514    1.55216271547983
H           1.67190289122512    1.48189536529964    0.60499740759290
H           0.82430116838950    2.69938834974309    0.12987901755354
N          -2.20187308942770   -2.23946787266871   -0.00589151969467
H          -2.35199803073800   -2.61074403390218    0.92374718839317
H          -1.21876218100536   -2.37511282566719   -0.23670878449189
H          -2.75209788821655   -2.78864633504684   -0.65349523955016
