    26
        -50.46206277  Gyration_radius:  2.40744824088 Dipole_moment: 2.091
 S          -1.15401109509828   -1.26669251461735    0.55053192126932
O          -1.83849653196310   -0.85440966228316   -0.66267801294019
O           0.20302344158357   -1.72199063883031    0.26542155049805
O          -1.18243371711327   -0.25874525099820    1.58860162901242
O          -1.94583170601319   -2.51317213950590    1.10599220996960
H          -2.07275377795742   -3.02822482421622    0.31666004872655
O          -1.67562030049894    1.82968537442353    0.09619974372016
H          -2.32522646581054    1.45911362209530   -0.50938153417066
H          -1.53206577647512    1.11716169683784    0.76112940036126
O           0.51195625056471    1.75647638388382   -1.22986873343954
H           1.15861068445674    1.21304952559786   -0.56953694296860
H          -0.33663665768687    1.93792602214845   -0.69125282634731
O           1.49298003597493   -1.92656915448233   -2.06918838660778
H           2.37063891275456   -1.59736793066565   -1.86356589083581
H           1.03751194741378   -2.02447970044076   -1.21011936393796
O           1.83306511258629    0.36046807409274    0.35244960793557
H           1.68310635341352    0.77504374716490    1.24735237749634
H           1.30147023487705   -0.46623073883051    0.37369692942834
O          -0.32955333048456   -0.08417012771348   -2.68225166635733
H           0.20116818984115    1.03915334106950   -1.95704297094770
H           0.37004807061865   -0.77644109264545   -2.69116086862506
H          -1.00089337906802   -0.41810196737721   -2.04444016462962
N           0.98189116406279    1.32168878731389    2.67369122448175
H           0.13635491080097    0.76366172481429    2.56473500044411
H           0.70252689419051    2.29305808146980    2.72836722039266
H           1.40917055501528    1.07010938167375    3.55565851802711
