    26
        -50.46265762  Gyration_radius:  2.42532059561 Dipole_moment: 4.329
 S           0.65670875053766   -0.54728045810616   -1.23902539565499
O          -0.69587085016384   -0.89465200368907   -0.75281098437278
O           0.71066306669360    0.82675682004378   -1.67889765450093
O           1.65170284344371   -0.86296503787521   -0.23296022520912
O           0.93381203873599   -1.47892653748571   -2.46205017836947
H           0.17828309595804   -1.30129425310650   -3.05020953792556
O          -1.46676471629062    2.08125008126957   -0.87555741029947
H          -0.64475479335161    1.69092700379983   -1.24592783943406
H          -2.18929418574227    1.61656318971167   -1.30020565845844
O          -1.11044695741661   -0.64456217650544    1.74081465099395
H          -0.17653502188846   -0.99458204679001    2.15239126934698
H          -1.02286150582506   -0.82155403334346    0.74533885773965
O           1.75056121039372    1.59347332610166    0.83966102201170
H           1.75597916276543    2.15981850368482    0.06261079620928
H           1.82578969505718    0.69125460960839    0.47476187437933
O          -1.58086765837479   -0.96982983503984   -3.21508922215440
H          -2.13313239516886   -1.73572484645979   -3.38658671847364
H          -1.48796655273608   -0.90100774889967   -2.24385387435561
O          -0.77520515922640    1.81339925259359    1.67138940586603
H           0.19855251390081    1.84169496485239    1.51567490567951
H          -1.16645337740833    2.05421321391386    0.79895041464823
H          -1.04979723256332    0.42838943386063    1.79867641018298
N           1.19918764301439   -1.36545488181325    2.47164115859113
H           1.68673607344112   -0.65077682945751    2.99747492156318
H           1.57309736270566   -1.36340465568480    1.51818666879659
H           1.37887696950685   -2.26572504517906    2.89560236319593
