    26
        -50.46265751  Gyration_radius:  2.42516954387 Dipole_moment: 4.326
 S          -0.30972515527891    1.26824777247419    0.74976592952647
O          -1.23488258434108    0.54913306751257   -0.15221245441884
O          -0.04207195661619    0.49510774686292    1.93924635827535
O           0.89304551500177    1.65287359530590    0.03764685954903
O          -1.03808726617538    2.58798336885021    1.16040061887761
H          -1.87970208756785    2.26870707971881    1.53177353179445
O          -0.92167849883050   -1.96736052994158    1.58988589200532
H          -1.86541519245229   -1.87449913617992    1.45177419243462
H          -0.59699460409595   -1.06997341148817    1.82341110681695
O           2.34207077547451   -0.48281096335178    0.76794449831179
H           2.12854119749568   -0.56957241297645    1.70144417675308
H           1.91326085690194    0.35335578968394    0.50410327435205
O          -3.23950251661370    1.09497190876351    1.44000202604655
H          -2.63701858995452    0.70594217721767    0.77487444356777
H          -4.01743965862965    1.39645287672389    0.96566393743120
O          -0.17963918014480   -0.87812049276652   -1.96925734726549
H          -0.68806413179034   -0.29773213063973   -1.31005872933889
H           0.65353331325916   -0.26276137890663   -2.27109137518268
O           0.86096618471217   -2.41583114900613   -0.32274081952637
H           0.17807549272696   -2.45644557889646    0.38735706373928
H           0.25332792777122   -1.63408447309804   -1.33715956182936
H           1.55531513098035   -1.81832032812992    0.04352143190149
N           1.77902749279466    0.65712407705142   -2.41097028909779
H           1.57696236765565    1.25492627654577   -1.60433765550055
H           1.84257815645188    1.23164560623332   -3.24068764698085
H           2.67351701126304    0.21104063243953   -2.25029947223873
