    26
        -50.46265766  Gyration_radius:  2.42515054962 Dipole_moment: 4.333
 S          -0.03001731778804    1.48275199035938   -0.25808523870128
O           1.28181571127359    1.49874853273484    0.34454638231364
O          -0.12736165991675    0.42430542697465   -1.28611405015674
O          -1.10029248158769    1.34649669172592    0.71031579601134
O          -0.25895163844397    2.83696811414200   -1.00254285163861
H           0.41552443642448    2.81962722482134   -1.70472712659668
O          -1.03964769349822   -1.82194490792067   -0.52746942478801
H          -0.71364153926107   -0.94957713159445   -0.93050659699307
H          -1.82111454265841   -1.52062633182522    0.15275151503275
O           1.31808658378095    1.86069686142974   -2.92881740869193
H           0.95857936637140    1.87969576604738   -3.81844202425085
H           0.85957931441797    1.13829899813456   -2.45479573087863
O           0.31612955727563   -0.07427934612440    2.49028727853013
H           1.15935166868905    0.38771345883069    2.50187029427831
H          -0.25367958486785    0.48826532987586    1.93197624307001
O           2.57842390928690   -0.69265194850492   -0.34559223174298
H           2.19020492753153    0.16552997029575   -0.06625328458796
H           2.63701310787310   -0.65259388251864   -1.30123685715427
O           0.87524090186674   -2.21637458084099    1.00083884369137
H           0.66907842590054   -1.54857543923304    1.69713920193506
H          -0.22065044978454   -2.11186797963283    0.10799538981158
H           1.62762789890612   -1.82032669891945    0.50134349575991
N          -2.71195293706112   -0.89072162772181    1.12310418364077
H          -2.54891334378147   -1.20932802337728    2.07014394922014
H          -3.70725976019805   -0.88575193783017    0.94456637914950
H          -2.35317286075018    0.06552147066813    1.04770384373729
