    26
        -50.46658018  Gyration_radius:  2.39983928671 Dipole_moment: 4.033
 S          -1.01877264488271   -0.54814658409187   -0.65540720642214
O          -1.32300342523562    0.85344052840777   -0.91651562568878
O           0.40618043417454   -0.81224731628303   -0.91569061277335
O          -1.37288304761921   -0.95653772829602    0.69173041856512
O          -1.83721403239714   -1.42861867231499   -1.63311542507465
H          -1.53322754337958   -1.08993113882356   -2.51750004836147
O           0.84961382554252   -2.46788663275532    1.06134225868043
H          -0.08205844554534   -2.51016813991024    1.31369591796188
H           0.82078510550141   -1.99137514578085    0.19877446579939
O           1.70700019836032   -0.47685208800499    2.36990338520832
H           1.45614096237085   -1.38478064655769    1.93012105814456
H           1.98169823284307    0.12608239932679    1.55851933366139
O           1.97232464429273    0.92198406692579    0.29657556942625
H           1.47650344360908    0.30470123586140   -0.29190487131762
H           1.36475343400579    1.66466799700819    0.45899912871064
O          -0.24905000086607    2.43135038450327    0.81986578749388
H          -0.59697693995540    3.31720123145868    0.70789251435310
H          -0.71354847590820    1.86332422342074    0.14603442811597
O          -0.56940169004362    0.50825933994988    2.71205214843513
H          -1.03591691958497   -0.06969687637189    2.06283189390902
H           0.77823878541521   -0.06421679692542    2.66667059778864
H          -0.50431606496432    1.37020470930041    2.26061386114317
N          -0.66277007972101   -0.08748530552949   -3.52977084533590
H          -0.84811634746484    0.71313949307694   -2.93371640399347
H          -0.76021230956292    0.18628450546412   -4.49922303566184
H           0.29422892101651   -0.37269705306213   -3.36277868275685
