    26
        -50.45412431  Gyration_radius:  2.56367309852 Dipole_moment: 1.816
 S           0.09949182734872    0.89333634796173    0.09541900902049
O           0.41115063453666    0.45386321735440    1.45626612524025
O           0.71329058297887    0.03007345954172   -0.90280143184428
O          -1.36153688405053    0.96846652252658   -0.10087894818014
O           0.60421486463234    2.32698734080442   -0.09477874929378
H           1.65097299261159    2.30935080200067   -0.06653938580798
O           2.81920886742416   -0.49178827624409    0.69292490753075
H           2.11855157905523   -0.25283566316927    1.31908298868645
H           2.32055212044831   -0.64849379649781   -0.12278659987360
O          -1.27892792112766   -0.25507901594535   -2.57219287250422
H          -0.41756970187931   -0.24145927772162   -2.09723654727354
H          -1.74424686342284    0.50033672842247   -2.19602956532093
O          -2.50658130339703   -2.26149198567928   -1.45317369618974
H          -1.98150075099172   -1.57981963046618   -1.96702909109830
H          -3.30560750670550   -2.42656279015192   -1.95682780184219
O          -0.87031856890416   -1.60493814319070    2.32366283035594
H          -0.29041500626068   -0.85412815505671    2.01456536862072
H          -1.01301837046988   -1.46144795137487    3.26133862521100
O          -2.69153201348637   -0.94359171825896    0.69971349286246
H          -2.66606862062286   -1.56213760626070   -0.13011265523660
H          -2.04576769112109   -1.33499840563255    1.39946489901169
H          -2.17189188154129   -0.05895522999968    0.37663076629106
N           3.14941506128815    2.18224637402739   -0.00984348993070
H           3.59287249216611    2.78625421000119    0.66872722082772
H           3.58583023876563    2.32421994975114   -0.91058688117776
H           3.27943183267808    1.20259270321450    0.27302148184260
