    26
        -50.46009921  Gyration_radius:  2.46619187322 Dipole_moment: 0.825
 S           0.99198787954647    0.29287072852092    0.83412800864010
O           1.89334120800360   -0.04445592109133   -0.25609796701943
O           0.04067659767102    1.32661201100657    0.43985952307955
O           0.28889503490849   -0.88997568180259    1.33206492488331
O           1.82816929379309    0.83051120365914    2.02806113282299
H           2.25666765557531    1.62123657877110    1.61142194513469
O          -2.27546629619223   -0.89461920692231    1.91529333339402
H          -1.29540238107613   -0.88314223431362    1.80653767671420
H          -2.45324579128367   -0.47756271865250    2.75911080241434
O          -0.83297891672988   -2.78122220673792   -0.08041411136820
H          -0.24944531968595   -2.16904142683205    0.42961341494924
H          -1.56398010134347   -2.97736256706300    0.51288586624846
O           0.75871683939075   -0.33304197038172   -2.54204437537401
H           1.20164037477558   -0.16220092047890   -1.66324888231778
H           1.29480349429950   -1.00035229946319   -2.97571880451347
O          -2.32172288666519    0.59189011622822   -0.30259587364433
H          -2.55596764194455    0.06975362089027    0.49762763281097
H          -1.44844192705278    1.00724671196415   -0.06549462456855
O          -1.56184044091142   -1.14259383813078   -1.88788495478362
H          -1.31213175590338   -1.88977392445813   -1.22945598928163
H          -1.97013253740167   -0.33892092106421   -1.25001682938581
H          -0.66650610955134   -0.78748613133513   -2.24203325992145
N           2.52837141839789    2.68083282282937    0.33577007573584
H           1.53867371390254    2.75588376461206    0.12234577103650
H           2.91611710729120    2.01408372788717   -0.32141565791361
H           2.96920149818151    3.58083068234152    0.19170122224458
