    26
        -50.45852417  Gyration_radius:  2.5084782655 Dipole_moment: 1.938
 S           1.08653917994045    0.84593522539003   -0.34591712481962
O           0.82525167213667    0.30346154748179   -1.67214702153761
O          -0.13291788335397    1.45814305516046    0.20693956659914
O           1.61114021032135   -0.16702546552199    0.55706753424058
O           2.15183048336557    1.96171374599690   -0.45572968964826
H           1.71814148675021    2.58340600923751   -1.10432450446810
O           1.02343588813626   -2.70836752903233    0.12131783499117
H           1.69934772217235   -3.15185971515175   -0.39336115216795
H           1.33731128680920   -1.78377761289578    0.24466082049692
O          -2.11157679784071   -0.86106155506223    2.47401340946278
H          -1.14489295771485   -1.06920327019366    2.60790018311695
H          -2.32827774193448   -0.17839045614152    3.11138686199317
O          -0.93018945564888   -1.61894159776755   -1.38179216211429
H          -0.28123260527112   -0.94268056853747   -1.69098502445500
H          -0.39553738672987   -2.22354573321114   -0.82610835671164
O           0.45162599553362   -1.31647419466180    2.68048355917426
H           0.61649953476191   -2.20512331282300    2.34869312064877
H           0.91248969751361   -0.72833072463859    2.04989288842079
O          -2.13423499311909    0.00555180187174    0.08679478921779
H          -1.33179827172914    0.69272577463403    0.13189141692955
H          -1.75464755318664   -0.75586206224342   -0.54195756914709
H          -2.20989003399031   -0.37840051919570    1.03971596291854
N           0.55403146366227    3.08037218483067   -2.17373748670781
H           0.59632692279997    3.70192796254631   -2.97119834100128
H          -0.24622204552365    3.32864491558664   -1.60616360360031
H           0.41744617213892    2.12716212435213   -2.49733592183004
