    26
        -50.45412435  Gyration_radius:  2.56363488757 Dipole_moment: 1.816
 S           0.60640331736805    0.53632715347351   -0.40303927465745
O          -0.24134951381417    1.54237783981707    0.23834009334664
O           0.86420032823672   -0.59219884463341    0.47915303609642
O           0.00189637343447    0.08484682684949   -1.67172057420378
O           1.93670972163095    1.18367015795172   -0.79998270619052
H           2.45282617604835    1.42914176638321    0.07774614880015
O           0.50961637219399   -2.58241172767265   -1.17937277317330
H           0.71745177914615   -1.98366941478499   -0.42705989087571
H           0.58304105136537   -2.00100597875800   -1.94431527683385
O           0.76670434811845    0.96712145546735    2.67298667633437
H           0.82955795907118    0.09098768528155    2.26428311515656
H           0.23750325358599    1.45806332358819    2.02566057715089
O          -2.75229461747025    0.99573547399833    0.40869023317717
H          -3.21919262043364    1.82756639946969    0.30722972694756
H          -1.78193385716344    1.22594083927968    0.44043976073592
O          -2.06980508426036   -2.87847653885186   -0.96682190422758
H          -2.33282405887589   -3.56099480614160   -1.58677508099897
H          -1.06770832655330   -2.86717740363425   -0.96356711515686
O          -2.39990729107300   -0.45794634220210   -1.62942174754499
H          -2.37125422840347   -1.45454933611614   -1.35094201498702
H          -2.69575062045056    0.08629138315791   -0.80710578412606
H          -1.36281001666887   -0.18770856069317   -1.72320213299956
N           3.11377193822183    1.74461857043238    1.39212899229135
H           2.37053609151873    1.53665327020540    2.07114913960912
H           3.39750375889499    2.70953346349553    1.49423387978854
H           3.90710778621468    1.14726334454854    1.58128491659903
