    26
        -50.45852417  Gyration_radius:  2.50839360743 Dipole_moment: 1.937
 S          -0.97325489172187   -0.92980947975923   -0.45183680238867
O          -0.61822626285559   -0.36666268026660   -1.74732596235143
O           0.22626115933255   -1.44310571796194    0.23018890789060
O          -1.66877117864201    0.03690946027499    0.38382261636610
O          -1.92895344492732   -2.12706149878932   -0.66449555402581
H          -1.38132082107662   -2.71144010419329   -1.25924650971565
O           1.76416573715045    1.02505228595542    2.67491649925703
H           0.77520334208405    1.15456387116234    2.70544517585730
H           1.96690510143749    0.36158447672269    3.33671514279085
O          -0.83477587627177    1.27254945113117    2.60904335489172
H          -1.03434471476805    2.14558925272370    2.25553329220973
H          -1.17830417001578    0.65026150537549    1.93770956461265
O           0.93814078083932    1.68978373606263   -1.28922393007993
H           0.38107024181339    0.96400961287287   -1.65953062717564
H           0.30158781463656    2.24892590856050   -0.79695449056100
O          -1.24295885692311    2.61747885049746   -0.00666675439930
H          -1.49326072797112    1.67059090193632    0.09017551690979
H          -1.89402738809705    3.00552865991450   -0.59306247076217
O           2.10662395685341    0.16557663499602    0.30975578250266
H           1.73584495954397    0.89469680640267   -0.36113893441794
H           2.05076084105108    0.55340111141876    1.26256211891057
H           1.36140169312154   -0.58376323863421    0.27560082618707
N          -0.07463763405874   -3.11255610849492   -2.19638488846322
H           0.01841703566583   -2.15143866686303   -2.51192137844127
H           0.01819996493155   -3.73550403559862   -2.98846562007130
H           0.67825332887074   -3.29516102543517   -1.54521486552859
