    26
        -50.46658018  Gyration_radius:  2.3999227216 Dipole_moment: 4.034
 S           0.79848139987304    1.06239641109198    0.00733347173156
O           1.04610254717631   -0.18750226308768   -0.73058329996929
O          -0.41063758200622    1.70624348515206   -0.49121259935357
O           0.74894383701962    0.80732227560929    1.43544501022248
O           2.00656999058273    1.99762347413312   -0.25109792736692
H           1.96848667619698    2.11402352801257   -1.23814839833109
O          -1.08904237637144   -1.72468120641392   -0.81666045811120
H          -1.80370248359267   -1.08915376710562   -0.63625809384252
H          -0.27994863494416   -1.17557494746764   -0.94721230398276
O          -0.45669731407321   -2.51972164116656    1.48392040349393
H           0.56000714254266   -2.30381979496859    1.46362022000690
H          -0.76698871101602   -2.35288547316631    0.49715686448557
O          -2.54508675634561    0.39254794562609    0.12332414433252
H          -1.75544801391048    0.95427080999486   -0.10771795562782
H          -3.31786673499966    0.92072944548187   -0.08213922649790
O           1.90776832430385   -1.64012174771672    1.26768680949412
H           1.75217399517460   -1.20312321508088    0.39764285285877
H           1.92045418137274   -0.89486111320700    1.88240114865564
O          -1.35755419622065   -0.38748433535767    2.43927885875845
H          -0.56687241424932    0.16516846244487    2.23296973778064
H          -2.01920178580501   -0.11374773078819    1.77729983834829
H          -0.88705410040697   -1.70621266566765    2.00674352100085
N           1.31507523404620    1.89065605585146   -2.75819240177620
H           1.46715089602418    0.90406149307802   -2.92734690379772
H           1.39165110757128    2.39056802742382   -3.63483703671666
H           0.37323577208967    1.99327847727930   -2.39341627579318
