    26
        -50.45770216  Gyration_radius:  2.42036710164 Dipole_moment: 2.956
 S           1.50667214169989   -0.25309609835831    0.96520484948781
O           0.63324407395267   -0.76698880431021    2.01527706329602
O           1.26268901403404   -0.93704192305490   -0.29888754197979
O           1.45739977297963    1.18240825502594    0.82277462480073
O           2.96355521943329   -0.63970310163358    1.43077351629395
H           2.77151199568722   -1.34029108304422    2.04493708916760
O          -0.30644095142931   -3.05248791173291   -0.25664001001411
H           0.34465233111577   -2.31765085576340   -0.21622687104522
H          -0.09744136610006   -3.55321652079038   -1.04705158293005
O          -0.71086463644073    0.41371284080077   -1.50179291373093
H           0.01867458236272   -0.12641019667662   -1.13618121050102
H          -0.23281455460035    1.13755540793838   -1.95878941637125
O          -2.38001489710231   -1.39636338626302   -0.26190504397299
H          -2.03351805378945   -0.76306081482503   -0.91239529095443
H          -1.73612802395344   -2.14436791229569   -0.25558086890234
O          -1.09911041717325    1.88727091175693    0.70398558822946
H          -0.13833304481604    1.84837556527883    0.89208287477682
H          -1.16295694534847    1.52810077222834   -0.20926570413788
O          -1.81432941304701   -0.20337476456328    1.86884567864077
H          -2.15512553234454   -0.75801700236621    1.03103105264520
H          -0.85593123843999   -0.52295054737470    2.04273090886597
H          -1.64976610990718    0.76434119844686    1.48518767317827
N           1.12981842935517    2.35941844414525   -1.89531367475978
H           1.45374331609943    2.06150911867235   -0.97615292945566
H           0.92869111116004    3.35036575506728   -1.83716440151573
H           1.90212319661633    2.24196263368501   -2.53948347911796
