    26
        -50.45770216  Gyration_radius:  2.42038078475 Dipole_moment: 2.956
 S          -1.32845246492960   -0.88201863944809    0.85042967834770
O          -1.31968054418058    0.56847026411237    0.70448570205164
O          -1.58431097917808   -1.53515110713460   -0.42925723119561
O          -0.14532404397602   -1.36613243218053    1.52067302876894
O          -2.57330466349964   -1.25294126028575    1.74569919865847
H          -3.20653120611014   -1.48959491572956    1.07643955119642
O          -2.11225183739581    1.56597444187768   -1.60111295468378
H          -2.36096247424422    2.47498511918276   -1.42501944612663
H          -1.91259018430516    1.16127378386745   -0.72825572283556
O           1.83605213983135   -1.35403019101361   -0.24596614419897
H           1.22046073833293   -1.58458462275940    0.48057307845288
H           1.88508032791139   -0.37315148556208   -0.19477529328538
O           1.18936871407363    1.23115553527345    0.04716678262075
H           0.25557806518066    1.07490073196212    0.29460741450963
H           1.63415154200753    1.29269309556543    0.91877107297255
O           0.30469744587321    1.02820447951783   -2.55603238229405
H          -0.62815395895131    1.29129436669709   -2.36977962403581
H           0.81339450190496    1.31346333196484   -1.77879020214830
O           0.23698525318288   -1.44648690446928   -2.16262454931318
H           0.26213912314643   -0.42713981719387   -2.45581681686411
H           1.01846832671786   -1.53005114334120   -1.46041671190632
H          -0.58998470497706   -1.54357921422689   -1.56460137710848
N           1.81396089511298    0.60045212706691    2.60463271547030
H           1.11232119638551   -0.12479337272341    2.46231984417915
H           1.50682272326768    1.16766630633882    3.38512615648787
H           2.67206603881828    0.13912151264255    2.88152424227996
