    26
        -50.46062691  Gyration_radius:  2.58255335527 Dipole_moment: 4.419
 S          -0.43854866352666    0.60773424071501   -0.38905401979868
O          -0.79177706970205   -0.71662768684382    0.19289566189044
O          -1.14220202912579    1.67994944438108    0.47068603079643
O           0.99650047043340    0.81936362019463   -0.24661797178945
O          -0.87201323347606    0.69764526872665   -1.76260828760991
O           2.52815473202405    0.89456150867946   -2.40054167253193
H           2.00722742371260    0.93862494286831   -1.56706051170144
H           2.58048304823821    1.79596085021668   -2.72150699549521
O           0.59044474153640   -0.04219327591603    2.36727516738780
H           0.04865715585704   -0.46056176520261    1.67437754828252
H           1.07913385594078    0.63538510785942    1.88757524594793
O          -1.63476185867499    0.62946351666650    3.77250030644556
H          -0.76516958264877    0.35863208477495    3.41094054740420
H          -1.56326816419553    1.56417548908180    3.97326278345020
O           0.66592131059664   -0.80372552274869   -3.25423637546907
H           0.96538327892228   -1.58273592026911   -2.05844398101210
H          -0.06137745291794   -0.24762031410553   -2.88185258583414
H           1.43964545915844   -0.19849327666372   -3.25011855436079
O          -3.00867043916734    0.29211788102339    1.50049290472537
H          -2.68098417572206    0.35007034591659    2.42905728980529
H          -1.98910885094549    1.26036441166974    0.83449219716691
H          -2.59722916388855   -0.49524247496092    1.12166123844026
N           1.14156434908794   -1.95059317191196   -1.01987148032562
H           0.30423966184989   -1.58165508592652   -0.46601551680625
H           1.97149481865074   -1.48408591193854   -0.65757853737523
H           1.22626040796921   -2.96051428628472   -0.95971042163772
