    26
        -50.46157643  Gyration_radius:  2.43400717224 Dipole_moment: 3.064
 S          -0.79844037004357   -1.91127989986941    0.58962769122696
O           0.61513475925970   -1.55364148539227    0.68211570522189
O          -1.58520311547781   -1.24239643244763    1.60447871004771
O          -1.30854550207973   -1.73337844566911   -0.75685499434002
O          -0.89773622942103   -3.45908842069123    0.88969023295095
H          -0.82557029683060   -3.50123826583700    1.83777753050444
O          -0.83817394616661    1.78388861551571   -0.60331673622287
H          -1.75337244147375    1.46021948579392   -0.42456545122025
H          -0.35345347774552    1.59475441598442    0.23022251953337
O          -2.99861333354974    0.37841428621031    0.02589588545240
H          -2.58893006434203   -0.18571646061105    0.71156974589374
H          -3.17961282053690   -0.22003115732456   -0.70344523279541
O           2.16987224114840   -0.49172920508625   -1.21003834289154
H           2.41608648949182    0.38445320425127   -0.79285390721313
H           1.80602835279275   -1.03515782959934   -0.48266288788891
O           0.26866333963080    0.85908289863283    1.67013423687839
H          -0.49474845120075    0.73725767922033    2.24219982524166
H           0.48944186846531   -0.04918497491805    1.36996620571655
O          -0.06685986445442   -0.02652350882970   -2.16163480661621
H           0.96394313873605   -0.22006312220552   -1.87108047070731
H          -0.58776938919002   -0.78377700795462   -1.72834206129421
H          -0.36469936369539    0.81809746159353   -1.60413659508951
N           2.49538512369843    1.87037160915972   -0.02398750454053
H           3.41697982149478    2.18776309074536    0.24667539822144
H           1.94828287198267    1.73059937467521    0.81961072631313
H           2.05191066950422    2.60830411465956   -0.55704541236553
