    26
        -50.46658029  Gyration_radius:  2.40028659283 Dipole_moment: 4.042
 S           0.82267918317063    1.02851193585668   -0.17258273924218
O           0.93218021654459   -0.27611240563012   -0.84610693895831
O          -0.42326858445029    1.68370551979170   -0.55165752103625
O           0.95793136535873    0.87126722373146    1.26411710153276
O           2.01198707125297    1.89748636082914   -0.65380483792314
H           1.84397109310191    1.95125230609921   -1.63270673734397
O          -1.02889017542383   -0.17381661728990    2.61733242786066
H          -1.76468418055576    0.07949262190928    2.02956042144053
H          -0.25732406666171    0.33375060446767    2.27039902769924
O          -2.49265881123170    0.49289211394316    0.42774451959008
H          -1.72543392711922    1.00812861523874    0.05594649093174
H          -3.27038249497430    1.03577948678413    0.29079813492711
O          -1.23672516685701   -1.73654851260017   -0.54221315265617
H          -0.43735852799772   -1.22783363447121   -0.81681452376249
H          -1.90283404989238   -1.06434265404982   -0.31553311338176
O           2.01338655815782   -1.62372993527481    1.11902920905410
H           1.75493640023249   -1.24028283421893    0.24837352000475
H           2.12954895494398   -0.84019442147448    1.67224708946228
O          -0.32495795220767   -2.39749101101350    1.70673441494497
H          -0.75952580722447   -2.28638777354439    0.76012663095133
H           0.68555593466900   -2.22178038828221    1.53746856555275
H          -0.65820080021750   -1.53485553515256    2.22213683985654
N           0.98496496161729    1.65891448592509   -3.03396582803303
H           0.10536033600042    1.81364707756443   -2.55114173883719
H           1.08600233763967    0.66016068983089   -3.16525916937139
H           0.95374014212352    2.10838670102388   -3.94022810325813
