    26
        -50.46448227  Gyration_radius:  2.45255586287 Dipole_moment: 5.454
 S           1.49181571759284    0.69497357392269    1.19635983872791
O           2.03943693947294    1.00812475866037   -0.11001742890793
O           0.25835018609406    1.38250719603039    1.49198617012866
O           1.39009438376111   -0.75309346535502    1.39377466315247
O           2.55396546108113    1.19998125654919    2.25434360395177
H           3.35367171460541    0.85522689053595    1.87427329610480
O           1.21759592118591   -0.30308609023107   -2.20624663826464
H           0.89330617875222   -1.11435820270797   -1.77190844858402
H           1.65824708251158    0.20050662198093   -1.47849401332816
O           0.30458135547779   -2.17677539259198   -0.48319369816910
H           0.73666607664824   -1.65673610427006    0.24414307787765
H           0.55536562162842   -3.09050274932379   -0.33817390912698
O          -2.15943735439745   -1.23633682967131    0.42011982087971
H          -1.41793012153267   -1.67682013615278   -0.02438592529414
H          -1.88974336669967   -1.18757650711509    1.36281418773882
O          -0.91311683177376   -0.78785161866874    2.77400755330337
H          -0.02313567026043   -0.89304352608417    2.39106522582925
H          -1.00809557088719    0.16391971628051    2.87768170903558
O          -1.80666898084760    1.29290538002096   -0.13566642772048
H          -2.08651074653527    0.35348691694517    0.05503135471072
H          -1.06267251484603    1.45474636962629    0.48770717470971
H          -1.27473097624715    1.29702371475388   -1.45638072121162
N          -0.82523502757322    1.26341630944838   -2.48525446754927
H           0.02797957495329    0.58958122810677   -2.43594843198280
H          -0.50467142836105    2.19101511076568   -2.74206210347326
H          -1.50912764380397    0.92876558855099   -3.15557545253961
