    26
        -50.45363098  Gyration_radius:  2.49722789971 Dipole_moment: 2.032
 S           0.17510196783892    1.54185429047094   -0.97067882083074
O           0.37076247887347    1.95141712861516    0.39859860477374
O           0.91784799288106    0.33802593179827   -1.31645489755944
O          -1.23211942119321    1.39663362872599   -1.34169714511861
O           0.73858218929933    2.70006344413153   -1.88130928207713
H           0.44642186346407    2.41631679616257   -2.74046366754416
O           1.28941535947428   -1.18676874102497    0.88004249502196
H           1.25747114717961   -0.65507847658947    0.06220839596728
H           1.94003827234865   -0.70489642851307    1.43008175404489
O           0.02703767210134   -2.16785463634456   -1.65148453575234
H           0.32048191536593   -1.23726898283230   -1.70958923621189
H           0.53896477754503   -2.53993546507843   -0.92593695153266
O          -2.49783301505245   -2.21024670902524   -0.97709299493533
H          -1.53934360820400   -2.25995410756446   -1.24639788649493
H          -3.00973898460511   -2.25302545341275   -1.78632481733553
O          -0.77354535306308    0.07930805748561    1.88909127553410
H          -0.08321815997370   -0.59166723940296    1.63705657393669
H          -0.38790588197812    0.92142391128236    1.57031739696417
O          -2.61072733835286    0.02404486639455    0.22760149228753
H          -2.63627309521485   -0.90437657695960   -0.21476121947514
H          -1.90304582970241   -0.02228080986299    1.03866727537934
H          -2.13515845124894    0.64732413683674   -0.44688348751308
N           2.65357308289368    0.90668048577554    1.98301193851895
H           2.56550707066798    1.16796983159631    2.95747543533839
H           1.98631409530639    1.46857051099333    1.45682983864990
H           3.58138924333029    1.17372060633139    1.67809244594855
