    26
        -50.46658031  Gyration_radius:  2.40023936253 Dipole_moment: 4.043
 S           0.72122563716873    0.67612549518524    0.88753049175528
O           1.75043582323138    0.48825427979967   -0.12776481033349
O          -0.52528342958515    1.14738132368026    0.26150438707626
O           0.47640479757887   -0.52470248912522    1.66543646045729
O           1.18630454861871    1.77639626937743    1.87456565142455
H           1.32660797601318    2.55128626588210    1.26690409530514
O           0.06424396717570   -2.78718360756557    0.40713619316201
H           0.31415546045203   -2.05074134521660    1.01409435065596
H           0.55871806136308   -2.59905726562576   -0.41211966569745
O           1.23968319541180   -1.50780728824740   -1.68155280983994
H           1.49926056781324   -0.75076178776666   -1.08832258852244
H           2.00532283010862   -1.69461962622717   -2.22675227153951
O          -1.23512396499927   -0.34501356501157   -1.78716791089049
H          -0.39561801848061   -0.77689675871150   -2.02311044435056
H          -0.99544899615058    0.34224485477725   -1.12121560279650
O          -2.21699844238629   -0.20789808809277    1.72731053274403
H          -1.74016865126911    0.47181671312398    1.19587397247387
H          -1.53089229691503   -0.53243058154505    2.32522034716731
O          -2.23286869108429   -1.94089029711333   -0.11885851761264
H          -2.37963730932151   -1.28556548751904    0.67464483407998
H          -1.95518414522237   -1.31475191172302   -0.91145266876250
H          -1.32875288888171   -2.43883535835422    0.11644209779571
N           1.37278661456907    3.31569735798642   -0.21644353993996
H           1.84121607464155    4.14413540349485   -0.56077582330634
H           0.39885949857599    3.35030367308303   -0.49067337185379
H           1.78075178157486    2.49351382146041   -0.65045340865907
