    26
        -50.46062685  Gyration_radius:  2.5824442145 Dipole_moment: 4.415
 S          -0.33968761078563   -0.74031742964710    0.21933930581728
O          -0.27933471398046   -2.01814703969283   -0.44854267512278
O           1.01883100292475   -0.14447440712697    0.34809854815707
O          -1.20724975825147    0.20500867799649   -0.47222111160126
O          -0.89747349513471   -0.90431328792815    1.64970329880695
O          -2.12156114107227   -0.38154446186557   -2.88298174459651
H          -2.95001806219439   -0.85610520398515   -2.80111046520245
H          -1.86658814486182   -0.13130210873894   -1.96628676510904
O          -0.12636029743469    2.06908109732782    1.28698789400944
H          -0.97828297736190    1.82983574231119    0.90616638860793
H           0.46567346563426    1.36200513354916    0.97352761385338
O           0.42164716143292    1.45113917272592    3.87441173854802
H           0.22410440394654    1.82845713795612    2.99188828889639
H          -0.42175748874004    1.35126113432829    4.31915411557926
O           1.26559344803276   -0.92888738484861    2.98797722725450
H           1.10307296319127   -0.07950018872606    3.46248062064177
H          -0.10500754884702   -1.05343133464621    2.26240801276789
H           1.73925811540948   -0.69566884991801    2.17930789448222
O           0.21924904607558   -1.64184216523442   -2.98898361562696
H           0.81788094568769   -0.36418516864953   -2.62161598204224
H           0.10152114387923   -2.00925977153444   -2.07905008650447
H          -0.68273160376625   -1.33485514986817   -3.22844750698125
N           1.10841430223368    0.59780848377079   -2.13643441982063
H           1.95486580233010    1.00381643967808   -2.52296466045822
H           1.21626058187581    0.34727766780809   -1.10229621049907
H           0.31968044977135    1.23814327494110   -2.21051571385864
