    26
        -50.45363121  Gyration_radius:  2.49760317079 Dipole_moment: 2.030
 S          -0.78321702260302    1.09622474009862   -1.24028963705484
O          -1.73979577087708    1.02721990763811   -0.16267077160149
O           0.57947960073757    1.31978232465865   -0.77823565864805
O          -0.83317827241585   -0.05502161761956   -2.14105873691318
O          -1.17435953524784    2.34414041833878   -2.12239563593096
H          -0.59589677252489    2.22851424816923   -2.86807039925098
O           2.62671302775697   -0.40327386785572   -0.60743423538911
H           2.71143108448225   -0.34265522453105    0.34972447167726
H           1.94675654403791    0.25989790891447   -0.83803842667406
O           0.89067938195497    0.33330913021349    1.71548017355095
H           0.83125635001410    0.77705095509919    0.84822883144330
H           0.38074407723257    0.92828988999932    2.30208720764368
O           1.71031556342016   -2.77802123022845   -1.20025733362454
H           2.12033427277428   -1.90071008769035   -0.96362212972633
H           2.01099774039055   -2.98823085837769   -2.08576984061386
O          -1.17080087621146   -1.19368750816112    1.17065763986600
H          -0.31487413056179   -0.81401434575309    1.50726053055356
H          -1.62785245935548   -0.41044479931290    0.80013737988933
O          -0.77605259165814   -2.28693883908707   -1.01744076341646
H          -0.95399252560984   -1.94602282160715   -0.01097890765666
H          -0.85685831182039   -1.41350883916478   -1.56533669666372
H           0.21107646795666   -2.56981920396820   -1.07895661507743
N          -1.06272891487942    2.05508735868528    2.53942548318726
H          -1.77442791900179    1.79751328503680    3.21231282600899
H          -1.44615583343904    1.88294706074933    1.61145294375499
H          -0.90959317453835    3.05237199576607    2.62378828072690
