    26
        -50.45608071  Gyration_radius:  2.51590280243 Dipole_moment: 3.355
 S          -0.72530737453667    1.08165697072311    0.70146688832471
O          -0.48865197157535    0.53495450800865   -0.71891328039391
O           0.24387579119297    0.45515650206954    1.58428565613776
O          -0.67287025514149    2.51107565467806    0.69933959613607
O          -2.11958381297140    0.60373743408953    1.02893611854592
H          -2.18829011832445   -0.45344452134415    0.88985202469487
O          -2.17833037488671   -1.84818176188586    0.64587724676490
H          -2.13136565693984   -1.92192373665895   -0.34654383442514
H          -1.30660060328023   -2.15319530306148    0.97835222341390
O           2.68099130902994   -0.34660264526500    0.71049837924141
H           2.46585443854394   -1.28325884737639    0.68553618502217
H           1.95995539150816    0.07251942177357    1.21221112013115
O           0.30081019693157   -2.16854355605271    1.63346172723424
H           0.32685346401035   -2.46725927716134    2.54431590531104
H           0.30370646537997   -1.18451795752485    1.66680203989712
O           1.61530543187858    3.46375992484879   -0.25267218048298
H           0.78881935964955    3.20933877578505    0.20785115151020
H           1.42199672116010    4.27968811721284   -0.71772444209061
O           1.83907446545865    1.07374477761555   -1.36819013676710
H           1.92033086193976    2.00759964084956   -1.06040470480657
H           2.34866150395680    0.53669091937599   -0.71592301278174
H           0.50565374078584    0.76407903507361   -1.04641662518753
N          -1.80759143299670   -1.78051900932307   -1.99936771881827
H          -2.60284785807696   -1.64400347723745   -2.60958977658586
H          -1.18466690523338   -2.44688989467582   -2.43730824091547
H          -1.31578277745884   -0.89566168453736   -1.91573230911337
