    26
        -50.45363124  Gyration_radius:  2.49769608111 Dipole_moment: 2.029
 S          -0.78954158087018    1.16656981009583    1.16938657986533
O           0.36709084078738    0.67358950006636    1.87665479868963
O          -0.49625359510280    1.54716379903299   -0.20516955968586
O          -1.93360011688040    0.25627092785986    1.21291615515292
O          -1.25969563304528    2.47560918943404    1.91340545084579
H          -2.09331766259906    2.63848601614826    1.48620287848849
O           1.59090819649135    0.11525298822707   -1.14387363240384
H           2.37864736380938    0.45331825651329   -0.67131374667505
H           0.88303152862069    0.71919875729476   -0.84937909503870
O          -1.07841536117807    0.26695129179034   -2.48774850581075
H          -0.16117845839140    0.12993673775683   -2.74639444665355
H          -1.02840701593132    0.81730964629453   -1.68153624196292
O          -2.10775148166794   -2.05092558308385   -1.85634818953111
H          -1.72159486823949   -1.18437540211959   -2.16242853529228
H          -3.05243895032747   -1.99640217041194   -2.00901363304080
O           0.99377422546803   -1.62949367298046    0.72071988882856
H           1.28292353028547   -1.17221033267047   -0.11438648108779
H           0.90630842159212   -0.88995980564420    1.35722012899059
O          -1.43281680613979   -2.11274277708188    0.59268384273754
H          -1.72351081657769   -1.17331582906659    0.91282917315433
H          -1.71256271823594   -2.17472709957763   -0.39521705328676
H          -0.35784169859363   -2.04434981391604    0.62251373073445
N           3.10624124491394    1.19388152218214    0.85604448549002
H           2.23330933407801    1.15839930095124    1.38001162142723
H           3.41524549903986    2.15801220876052    0.84703649280242
H           3.79144656857331    0.65855253407733    1.37518389327242
