    26
        -50.45608072  Gyration_radius:  2.51594944077 Dipole_moment: 3.354
 S          -0.71807047756542    0.77781588249859    1.03306810352499
O          -0.82932518484886   -0.64758849245109    1.29190434602981
O          -0.07495978645488    0.95402219998141   -0.35536144267095
O          -1.96215813900963    1.48067434891969    1.09772751526301
O           0.29205181732446    1.40328913097073    1.96479982714791
H           1.25533224048166    0.96812084107486    1.80885650507093
O           2.49039836495594    0.34739521596475    1.50179925580011
H           2.26449360826825   -0.59555911502112    1.34928544413822
H           2.73343733586290    0.71629447813732    0.60880512355895
O          -1.13599353631134   -2.45455303319295   -0.70498938079307
H          -1.25004008690196   -1.93412848561125    0.10950919422429
H          -0.22848860696154   -2.77106181817465   -0.68261314140522
O           1.37167025652312   -2.06985219256191    1.13981141449340
H           0.52401494913440   -1.57719208351688    1.23035649354400
H           1.42727046019776   -2.64887604786344    1.90218203485634
O          -3.67870370749290    0.72513601816920   -0.78165769869534
H          -3.15904616636082    0.99265510808694    0.00463806003054
H          -4.18739634424007    1.49550121174678   -1.04084896340861
O          -1.51920825796126   -0.17880082857029   -2.01688959853453
H          -1.43879900295058   -1.11948543596194   -1.73021512009487
H          -2.41778645227955    0.10821417865439   -1.72776813883023
H          -0.68081581011616    0.49190900161586   -1.10909401004933
N           2.79524217313900    1.28892856043095   -0.98007821923144
H           3.18494694341673    2.21249245886226   -1.11639334979029
H           1.78719705231790    1.35022496876846   -1.08927345663502
H           3.15473639783373    0.68442391905056   -1.70756079753657
