    26
        -50.45608068  Gyration_radius:  2.51591549138 Dipole_moment: 3.356
 S          -0.47834948042980   -0.13052651544573   -1.39387868538596
O           0.82436848989407   -0.18165857046968   -0.57360953020114
O          -1.51421624254922    0.43307137139744   -0.54497632580910
O          -0.27006493583816    0.58714042407827   -2.61352640145702
O          -0.76626513482936   -1.58517607661313   -1.67812961848634
H          -0.77879497175299   -2.14267878855123   -0.76653764542755
O          -0.74382980531682   -2.78951860341897    0.49222440197726
H           0.22045066895865   -2.78440277673188    0.74263035736121
H          -1.18327690170853   -2.16283088214948    1.10674211225611
O          -0.95362986688300    2.20536271938894    1.42747430468068
H          -1.05048107505849    1.57561857840305    2.14736970193977
H          -1.33226937192358    1.76664081401281    0.64553718448953
O          -1.95458438198162   -0.74994323909413    1.75649373579747
H          -2.89888820447327   -0.86516904472920    1.87720119442871
H          -1.84259735656915   -0.28464832731299    0.89599989054090
O           0.63761831078507    3.05177864766330   -2.22486542000043
H           0.20765189393195    2.20412925508826   -2.46261913536033
H           1.23202985600850    3.26193633722559   -2.94730774551089
O           1.36872700899407    2.12453088690713    0.14387836325857
H           1.10627089299484    0.80305365062065   -0.25777862152892
H           1.19625915850961    2.63541924426051   -0.68244945898733
H           0.60808077030218    2.32390281005381    0.73984749019567
N           1.84665296084605   -2.43573154867399    1.04292716754510
H           2.13335277244028   -2.19974689235433    1.98421309996123
H           1.85686152988439   -1.58570037468883    0.48683786715953
H           2.52892342576483   -3.07485309886292    0.65630172657003
