    26
        -50.45608066  Gyration_radius:  2.51595433709 Dipole_moment: 3.354
 S          -0.75987534532104   -0.83230677765202    0.95827858305066
O          -0.16292133145676   -0.89658594074303   -0.46018175294842
O          -0.74440855137656    0.55725719189088    1.38261541609772
O          -2.05748859320353   -1.43371139038553    0.97942924503735
O           0.21270890889383   -1.64316284043862    1.78055413569232
H           1.20604956113931   -1.27282576951267    1.64669143952863
O          -0.93811546730128    2.60422020053439   -0.38333259199503
H          -0.00678804576917    2.84064270769596   -0.35233966357204
H          -1.07904130451537    2.00314907914815    0.36906821167315
O           2.48254646943244   -0.72338877110500    1.37590748135325
H           2.67503833099703   -1.00352423028613    0.43937286489296
H           2.33412112582488    0.24621845469718    1.33989272521380
O           1.56552424000929    1.80286077704901    1.32793643179008
H           1.68567970381395    2.28245416022263    2.14959414846835
H           0.68127579649569    1.37390165851110    1.38707327371763
O          -3.74268169852493   -0.32636194352807   -0.74797603268675
H          -3.23135902145014   -0.72526776511770   -0.01359071182524
H          -4.31933636571553   -1.01739759702222   -1.07866736580648
O          -1.54031713611750    0.53688722315741   -1.93595519210848
H          -1.37459990576061    1.42780584236841   -1.54560171332174
H          -0.74302765106938   -0.30168214709406   -1.13704586419657
H          -2.45385918985271    0.29236917008563   -1.65463597113453
N           2.65532465249552   -1.38778024303879   -1.20622892886496
H           3.04928458548899   -0.73278189890910   -1.86925954703300
H           1.64361968790931   -1.35353770178970   -1.29097732422687
H           2.96264656493072   -2.31745143873325   -1.46062132679033
