    26
        -50.45608068  Gyration_radius:  2.51593715249 Dipole_moment: 3.355
 S           0.79024998811533   -0.42634733328242   -1.17559085996171
O           0.67010018570649    0.74734332012679   -0.18539294312025
O          -0.38738714579829   -1.26244977688329   -1.01627331160418
O           0.98176389370171    0.06311671423743   -2.50591429378008
O           2.02182424593424   -1.15772257614659   -0.69826290926627
H           1.92946693297708   -1.39575458812853    0.33938601679443
O          -0.89464515843341   -2.17372536899248    1.39241976964516
H          -1.10129445405239   -3.10865123686573    1.33982111582588
H          -0.73553797732674   -1.87506254046066    0.46780459815117
O           1.71825645202684   -1.63467315517200    1.71876018227662
H           1.80159869453581   -0.73468057911337    2.13784326788686
H           0.76906959938987   -1.87503781943774    1.78766875709714
O          -2.77436691484983   -0.25180281384236   -0.22431791089247
H          -2.07197159214619   -0.71434554989277   -0.71423837992694
H          -2.72008389151940   -0.58323558527503    0.67648236092927
O          -0.95130463774956    1.70246406335643   -3.29665086128539
H          -0.25450869381634    1.03276722182619   -3.13615138913431
H          -0.55781329531926    2.36696320539639   -3.86498311375939
O          -1.41494184900122    1.97718120871004   -0.70522376068542
H          -1.37984833684287    2.02050878425902   -1.69032125731459
H          -2.09634070675384    1.29487799388267   -0.49628158793125
H          -0.21351585058009    1.31870049000438   -0.38848821744190
N           1.74616298247485    0.89984475149537    2.56401129164590
H           1.40457733642461    1.21333501268146    1.66016932069132
H           2.63202664166495    1.35464676605906    2.74248209325943
H           1.08846355124030    1.20173939145299    3.27124203190936
