    26
        -50.45412441  Gyration_radius:  2.56389333466 Dipole_moment: 1.812
 S           0.15579697879244    0.88695272486649    0.07719141736939
O           0.97980778744308    0.38566070126556    1.17799451852210
O           0.28673158820832    0.06022756191032   -1.11352430691503
O          -1.25646713187877    0.98810241392953    0.49463909245802
O           0.58092337646490    2.32112971394637   -0.25217384200313
H           1.54752760096494    2.28956603470553   -0.65458035985968
O           0.10210490868657   -1.69184127459973    2.42152131639071
H           0.52783256010430   -0.93575324137130    1.92882682628404
H           0.35750475610956   -1.58714140121044    3.34020335329686
O           2.84322385701764   -0.55470252163020   -0.53033948899448
H           2.46367902043976   -0.33402682063597    0.33414647752575
H           2.05249549365749   -0.67110877687503   -1.07786255883392
O          -2.21889539445957   -0.13078288772435   -1.83644009068022
H          -1.23890364747497   -0.14768088420985   -1.75233265272712
H          -2.47020457127976    0.61404449191116   -1.27904698460697
O          -2.94556012431322   -2.16627070865630   -0.38251749097219
H          -3.88474319131938   -2.29888118701038   -0.52284522520438
H          -2.65427782894697   -1.47044314197280   -1.04239108305287
O          -2.20165860858441   -0.93862873939782    1.70245863047805
H          -1.83213229878886   -0.04768645893719    1.22539165413071
H          -2.53354511878920   -1.52150935336282    0.91412740026046
H          -1.33919083213041   -1.36781408221532    2.06536386398118
N           2.93449107312966    2.14178340284322   -1.21834673701555
H           3.14084173728745    1.14979016685884   -1.04502731473169
H           3.63263689302569    2.71198908616941   -0.76076207139508
H           2.96998111668520    2.31502520144923   -2.21367435364951
