    26
        -50.46157680  Gyration_radius:  2.43395861506 Dipole_moment: 3.054
 S           1.30737210610432    1.09685124182039    1.31362559617384
O           1.77364980302563    0.17733346625080    0.27847817959740
O           0.80497745064123    2.33001615121106    0.74500493210719
O           0.37912480632209    0.45185532718302    2.22322620966871
O           2.56872136672454    1.48357315939989    2.18277656972715
H           3.00431632574902    2.14160093479686    1.65062029955814
O           0.13931746983513    0.97893909981597   -1.61982069272458
H           0.07999381781056    1.92417329788037   -1.45278214298533
H           0.82835344252761    0.66837557673245   -0.99327838966269
O          -2.03082066077147    0.01514496482205   -0.35009341085409
H          -1.31126484683671    0.30499359827354   -0.95311289160927
H          -2.16780646765591    0.78997130838310    0.24581617305143
O          -1.77723339178566    2.03700139685375    1.34920186278528
H          -0.86564239298559    2.29453455110173    1.10671501743776
H          -1.69709660968957    1.66641840950735    2.23187542164983
O           0.97984809116578   -2.32980623016234   -0.17574117144526
H           0.59447097316927   -2.24965827917612   -1.09645302158099
H           1.50630551652573   -1.51653154836237   -0.04038585512837
O          -0.87327587670669   -1.52934946505044    1.25532931987710
H          -1.44966369733974   -0.97478227152254    0.56788373963040
H          -0.09336533953034   -2.00762695588926    0.66436604941563
H          -0.37841070626987   -0.80971053129319    1.77430516983554
N          -0.20343964157691   -1.83884067413471   -2.50999035797801
H          -1.20515650603109   -1.97112744712026   -2.44304371035511
H           0.11806073741939   -2.29102968575980   -3.35586665038223
H          -0.03133576984279   -0.84231939555401   -2.59865622583018
