    26
        -50.46157683  Gyration_radius:  2.43398565664 Dipole_moment: 3.053
 S           1.81288023346297   -0.69785178592079    0.92962028700976
O           2.07374289072790   -1.50808351648093   -0.24163495410905
O           1.56151046783314    0.69682064095131    0.57447720683299
O           0.76884655557111   -1.22796494779472    1.78639565802738
O           3.13529132162126   -0.71790277694969    1.79376531851022
H           3.82279103695049   -0.65504960525393    1.13863152245133
O          -0.12966342386844   -3.01202704935099   -0.19737803084045
H          -0.20144188256736   -3.16826151946809    0.74778818691484
H           0.73524954828628   -2.56969479662856   -0.30872015932382
O          -0.57988107115562    2.18214460286040    1.14945209436299
H           0.33109899423843    1.85171428101154    1.01609164853503
H          -0.92728982459562    2.38808795615272    0.23321546806137
O           0.53684858215957    0.24064298719901   -1.80437611757844
H           0.96923736801143    0.50280744510259   -0.96289391558031
H           1.05407882897756   -0.51067840916022   -2.10913146623062
O          -1.66404573264466   -0.92865911918194   -0.78485101220580
H          -1.27022922046328   -1.82537369766106   -0.66219587799321
H          -0.96798171971175   -0.42852897743951   -1.26522097194610
O          -1.48322062921986   -0.08245670647579    1.57189789127059
H          -1.68808954948958   -0.41666628391834    0.59285030980237
H          -0.61775833688084   -0.56198505814089    1.80259740080061
H          -1.18433552172201    0.95974406689232    1.46864466988788
N          -1.45975345832956    2.39981181393961   -1.35425974942572
H          -0.74897854201859    1.86822905297294   -1.84695538388646
H          -1.53819455101775    3.30660396120331   -1.79575291160339
H          -2.34071237414731    1.91457744153595   -1.47205710174252
