    26
        -50.46658028  Gyration_radius:  2.40022759701 Dipole_moment: 4.045
 S           0.93894560714048   -0.91190747612941   -0.22628331791870
O           0.30851270025785   -0.06205996565435   -1.25016457715160
O           1.66614180892380   -0.08576203764719    0.72984277626633
O          -0.05154951665313   -1.76238310305901    0.40813393585276
O           1.94447010135061   -1.84034948584744   -0.95273380638568
H           2.57504518617189   -1.18474753299941   -1.35537021422099
O           0.08736105015158    1.31387191364560    2.21562557755521
H           0.58796629536765    1.71615376906951    2.92689939770629
H           0.73693689926236    0.76915230902371    1.69238636667722
O          -1.93202369842126   -1.38776545462209   -1.51132042410159
H          -1.10535652084775   -0.86736096222650   -1.64520801685140
H          -1.63938553588052   -2.11181273010305   -0.94253571916061
O          -2.94687984098753    0.25428279423312    0.12736671874165
H          -2.29424979750242    1.05573628013102   -0.04305614226342
H          -2.68591633085098   -0.43756506951171   -0.60325669465033
O          -1.07784670441380    1.90750981804932   -0.18854530001933
H          -0.69202449369708    1.96938645919932    0.70263988925162
H          -0.49191000078306    1.28649800592358   -0.68283800615267
O          -1.73944154983793   -0.69336882235292    2.10546504206041
H          -1.11113511800326   -1.25293940990383    1.59040117799542
H          -1.19598435612119    0.05727519152057    2.40935656398083
H          -2.57744793316448   -0.16334461563557    1.02750739472801
N           3.17239765215066    0.34434439149755   -1.65615285271788
H           4.07748742070118    0.69616321643890   -1.94126733890499
H           2.98781733845336    0.62723340507597   -0.69870329649811
H           2.45806936723403    0.76375911188474   -2.23818912379818
