    26
        -50.45241010  Gyration_radius:  2.60990576378 Dipole_moment: 1.150
 S           0.75819389246845    0.59976640216300   -0.70245177267953
O           1.21445939977986   -0.04749171131724   -1.88866180825612
O          -0.73403862684201    0.97940133737439   -0.83954252592039
O           0.77810414910435   -0.43410422792933    0.44117165695455
O           1.45236816782443    1.78467828776966   -0.29242553201542
O           0.79463445423413    3.33922671474706    1.73498868810286
H           1.37187701340167    4.10231724077375    1.78073925434634
H           1.07301061674869    2.83378296989042    0.94087344473118
O          -1.80927804738490    2.32418467592997    1.38422936389224
H          -1.16263624436530    3.03284178323858    1.51323308871108
H          -1.66999697501379    1.99679813220944    0.48560736839620
O           0.04143740978861   -2.40316634535363   -2.49479052150573
H           0.32544345605447   -2.94328756794665   -1.72087504819699
H           0.62993063797565   -1.62803997294095   -2.48486819966039
O           0.02285765940488    0.78120018491717    2.50725841846196
H          -0.84129313679346    1.18316240193711    2.24281020635966
H           0.48501320820518    0.03176526807322    1.31853637973813
H           0.60342681352927    1.54974631107153    2.61086639853692
O          -1.95217544491409   -1.04985236078370   -1.63989815139735
H          -2.49920475793537   -0.82543975372880   -2.39585204601898
H          -1.22141312902311   -1.66643797804362   -1.99136980585039
H          -1.25535714212754    0.13786636546536   -1.16262727664767
N           0.82339753178874   -3.41667472319202   -0.09838075829086
H           0.91639414286287   -2.47436941584606    0.26860662572653
H           1.71370265121095   -3.88457437855479    0.01369231487001
H           0.14114231003212   -3.90329961993597    0.46913024760415
