    26
        -50.45726314  Gyration_radius:  2.46376306361 Dipole_moment: 1.967
 S           0.32383362844519    0.83124675076418    0.53346636148514
O           0.73858978854474   -0.49942556638668    0.07679930850623
O           1.16483206310931    1.87588155757063    0.00561906675952
O          -1.10037997026617    1.04592902951031    0.28015660448842
O           0.45489679435341    0.80780616245389    2.10134087186891
H           1.45082081230894    0.75904540673492    2.23192454746061
O          -1.12354676018727   -2.32421957008362    0.20892385469973
H          -1.44084804550641   -2.09804576816908    1.10932753620794
H          -0.28323770359941   -1.81002083168238    0.13115159638359
O           1.10957466389251    0.51249357033163   -2.34817492245518
H           1.15813759843848   -0.13391683534050   -1.62229352307799
H           1.19037107209824    1.35530863134854   -1.87875794189154
O          -1.25505216695891   -0.14271219841644   -3.30604752545780
H          -1.59698748158819    0.61934817578958   -3.77682196340155
H          -0.32581056310802    0.08366164502427   -3.03919237534687
O          -1.74498747396599   -0.86213185114379    2.36993042440535
H          -0.95000064438997   -0.30934885612741    2.40696158390909
H          -2.45390698838818   -0.26453376134859    2.11940891185858
O          -2.38306810915208   -0.61457732541580   -1.06717056022060
H          -1.92801695897253   -1.48156590091799   -0.60751011698088
H          -1.93615139731962    0.14269710079593   -0.51302169784037
H          -1.99564610295204   -0.50532978815556   -2.00913239012832
N           3.02207408013243    0.73535512729092    1.80673035510826
H           3.28643914777912   -0.17788514590473    1.46053050483769
H           3.80081332270716    1.12719878254936    2.32045070501400
H           2.81725739461428    1.32774146890908    1.00540081388577
