    26
        -50.46437118  Gyration_radius:  2.49440922395 Dipole_moment: 5.806
 S          -1.03882739451239    0.26423928528412    0.31513302547675
O           0.33861356450683   -0.05590228481911    0.75035696212264
O          -1.80817470488399   -0.95150327402915    0.14875462734241
O          -1.67393048359039    1.13704145613867    1.43081573551853
O          -1.01187450757938    1.11429489364864   -0.86283583300816
O           1.20455892524603    2.28084345940104    0.08707327898380
H           1.02212596856921    1.42534176452667    0.54718051772503
H           0.33009548204172    2.49407361175522   -0.27081711999157
O          -0.71404780852648   -2.27408007852483    2.13949265329763
H           0.15809703336609   -1.87488644236311    2.05848775200718
H          -1.20111990550166   -1.95439309305983    1.34849607813171
O           0.55818104122666   -1.91831842995647   -1.12860666494523
H          -0.29202392240476   -2.35596401819364   -1.02530298004633
H           0.59528540852308   -1.28355427248083   -0.38356394075463
O           0.27933463312971    0.05534247720874   -2.86491185738788
H          -0.36419146477281    0.50691252704587   -2.26529422318390
H           1.50131243144912    0.71674281225203   -2.45748888336381
H           0.38436138583872   -0.83270933266960   -2.44911619138031
O          -2.09311494355273   -0.44731440000359    3.45423003524306
H          -3.01176913441716   -0.72156575294000    3.41331705020684
H          -1.56077037810752   -1.22192886154378    3.14365935815876
H          -1.82220188852077    0.58691924940774    2.25004906880332
N           2.38065632662279    1.21341934203605   -1.97889862949412
H           2.83032178156431    1.86350991086024   -2.61474434423291
H           3.03753773502350    0.50395374617059   -1.66859836853772
H           1.97156480924797    1.72948571483960   -1.11686710668236
