    26
        -50.46217519  Gyration_radius:  2.47794179762 Dipole_moment: 5.219
 S          -0.10984480132132    0.08505661981447    2.07319369680572
O           1.26210494170743    0.31017935209105    1.64348974739216
O          -0.89976104568654    1.27339728879250    2.24649655290712
O          -0.74429007565865   -0.93071763572517    1.23063722502459
O          -0.00409101941071   -0.57362460288250    3.52018744175574
H          -0.57218320719348   -0.01405512123543    4.03977261138367
O           1.33218779602814   -0.15681386994481   -2.19153065498986
H           1.35248283116637   -1.07632498609630   -1.08141299459124
H           1.56201997136499    0.69035051961276   -1.77418289089844
O          -1.08329807064069    1.90872397487232   -0.37628381219861
H          -1.17371987508690    1.73267494583869    0.57427942623343
H          -0.16075376670019    2.16936187566324   -0.50505970458673
O          -2.48267159603254   -1.66438664131757   -0.71003266667995
H          -3.35026616545442   -1.29775769037973   -0.53056209207219
H          -1.92543838204654   -1.42245382760925    0.04991830754330
O           1.72214196606331    1.90432909641522   -0.39247445400571
H           2.33602379859701    2.59369776020234   -0.13641547806370
H           1.58038156536773    1.34385103398518    0.40590994724830
O          -1.23530659409258    0.09870736089958   -2.38916159927468
H          -1.32554563032240    0.83471592191342   -1.75205500985575
H           0.35349767132873   -0.08056934007640   -2.40908110419738
H          -1.69039014474009   -0.65236697607784   -1.96601258024106
N           1.33697554635661   -1.66960725705974   -0.13365843829304
H           1.99240936459601   -1.23731309724961    0.52136033395574
H           1.53023381383371   -2.65327789649304   -0.28731385004065
H           0.39710110799663   -1.51577680794022    0.32999205973169
