    26
        -50.45787833  Gyration_radius:  2.45602856866 Dipole_moment: 4.238
 S           0.42751140727545   -0.16665605476625   -1.41458713622221
O           0.27285780914530   -1.27258116025649   -0.46371667040721
O          -0.29334708121360    1.01934698225082   -0.94043666001242
O           1.83418992567148    0.12447762798164   -1.65482712583769
O          -0.19774044746096   -0.60178372893311   -2.75325077796675
H          -1.17637214898964   -0.77104225016162   -2.53864577401722
O          -1.87183971700827   -0.24117236570575    0.70587411562972
H          -1.25296933409246   -0.98121647973850    0.59465334782304
H          -1.46895514582976    0.43076944178805    0.11347289259006
O           2.14954579828284   -1.47371585503585    1.32017035179939
H           1.38572321216617   -1.46776864167625    0.68518150997238
H           2.69111159139626   -2.22675463064383    1.07730348075653
O           0.95678483850391    2.20116360363061    1.04515252651109
H           0.46250323675029    1.80069764093997    1.80105530853618
H           0.44996643597760    1.93366878682606    0.24140494882164
O          -0.64354454088510    0.97668721282853    2.78677916820425
H          -1.17075928105544    0.46312246063890    2.13548821855818
H          -1.26616296145192    1.50978592372217    3.28289932607776
O           2.92040656314390    0.80436660311913    0.48875296917682
H           2.74164293237085   -0.07690564409701    0.97460600958121
H           2.60545876779132    0.58651234289984   -0.47650443329334
H           2.14437084154437    1.49273153064782    0.82586557443939
N          -2.67916938194347   -0.98774922390870   -2.05232711642516
H          -2.70914258127401   -0.80166227053699   -1.05195265506059
H          -3.00641388604054   -1.93081254399915   -2.21570424458603
H          -3.30565681277676   -0.34350932781458   -2.51670715465004
