    26
        -50.45787833  Gyration_radius:  2.45603169548 Dipole_moment: 4.239
 S          -0.22962467050534    1.46392733858308   -0.12501755883481
O          -0.84668815633299    0.61664840113778    0.90088898711965
O           0.93837404375073    0.79384866175598   -0.70625135050447
O          -1.19663801947493    1.83460879094473   -1.14908378775503
O           0.25266714491539    2.75820630930663    0.55652948741253
H           0.93638771265173    2.45014746379546    1.24212821232271
O           1.30793849839669   -0.88940843762235    1.24847220461908
H           0.41159146456812   -0.63427758627318    1.52142504930014
H           1.42994102765112   -0.32458090870899    0.45421666749677
O           0.64062488349867   -2.92578436435357   -0.40381395751726
H           1.36940803417572   -3.54108484485049   -0.49468878558053
H           0.89545682969776   -2.29166977612774    0.30246827544606
O           0.24784345969161   -1.14219329830125   -2.34242129803271
H           0.64259662177262   -0.37963756304606   -1.85548544437104
H           0.32407441886362   -1.90630022007143   -1.72080379392868
O          -2.77548086718478   -0.90982212560673    0.06757410166472
H          -2.04543170699833   -0.37103005846022    0.47180218562441
H          -3.59507944522502   -0.53227026990155    0.39163576696959
O          -2.04844567518255   -0.22637245259224   -2.27324647389969
H          -1.08457328839328   -0.71774475677558   -2.41193845374158
H          -2.45316507786304   -0.63927796425005   -1.43042911650675
H          -1.76073593674074    0.71298496920645   -1.93674432821089
N           1.98606694615054    1.81787738355766    2.26208191851021
H           2.92367141941057    2.14033882724144    2.06184534885101
H           1.96070003203625    0.80717976799127    2.14324765317644
H           1.76852027666318    2.03568670341729    3.22560849036717
