    26
        -50.45409696  Gyration_radius:  2.48293001332 Dipole_moment: 3.305
 S           0.78383702080218    0.71228100243584    0.57521103368566
O           1.28036866192494    0.59341087869158   -0.79220495810899
O          -0.68216631924783    0.52669113791363    0.58589402664835
O           1.41956182914054   -0.21750634441163    1.48425538674737
O           1.07192894740254    2.13877711577448    1.08435206996131
H           0.54913234921907    2.76241764455838    0.47931030435809
O           1.99494593976199   -2.68224074894300    1.13291158798429
H           2.10017806529484   -3.01474014870199    2.02693259364410
H           1.88406194192375   -1.69225612440047    1.22813082690987
O           0.00305636386272   -1.40336411476562   -1.80401334842507
H          -0.78524196236790   -0.91981092605123   -2.08000113584253
H           0.61699255835850   -0.70246856738465   -1.44755598157582
O          -1.14450326460444    1.28408767996264   -1.89674683200148
H          -1.14777403549571    1.00484222613919   -0.95726137898289
H          -0.21036702137918    1.24993786727742   -2.13655775099474
O          -1.56909777400664   -1.60742833721834    1.66989126663707
H          -1.19049543997880   -0.73206017225379    1.36328887535428
H          -2.52034217391429   -1.53392674845429    1.57041477142877
O          -0.24847378131491   -3.05037665512690    0.07485851009803
H          -0.84702723234103   -2.54045664155725    0.74948911167781
H          -0.17296399890723   -2.42808270392915   -0.76344165770571
H           0.70970139733796   -3.01713022906204    0.49877596950660
N          -0.32207618924504    3.68106896038212   -0.49367601675149
H          -0.82405153098852    3.05102557757931   -1.11945132240979
H           0.24838092210580    4.30384352936982   -1.05012248029226
H          -0.99756527334178    4.23346484216981    0.01731650845252
