    26
        -50.46217678  Gyration_radius:  2.4779792009 Dipole_moment: 5.217
 S           0.24350268551088    2.01892444554398    0.42453743335249
O           0.21708980836320    1.82051388956175   -1.01634788392403
O          -1.02872100436940    2.30790507938835    1.02789237227323
O           0.96920743649479    0.92417990330603    1.07321612722607
O           1.13580417435630    3.31691652068376    0.66300173601420
H           0.58534866048250    3.83812950543965    1.23848639433609
O           0.04378443297788   -1.98835389184969   -1.62482656165010
H           1.12275723746677   -1.08424288342282   -1.31423436476743
H          -0.66220207379477   -1.38907536122766   -1.92025579943767
O          -1.57811603643078    0.20686699631699   -2.05209369019131
H          -2.08255137448448    0.66680616556610   -2.72414099787599
H          -0.92983820335481    0.85701790294458   -1.69352132583490
O          -2.12294531119897   -0.14087541252928    0.67830145354289
H          -2.21901491171038   -0.09655612147663   -0.28313653405904
H          -1.80840125841964    0.73716352715812    0.94858430741349
O           1.00760096894420   -1.32488314334763    2.57946278815232
H           1.01333635964006   -0.46925591335054    2.11637855411389
H           0.50903427965470   -1.18623545169136    3.38668297637112
O          -0.72932500968024   -2.46292703869061    0.79851677699867
H          -0.25362991246377   -2.31154746258204   -0.72031175614144
H          -0.02181294743153   -2.25307957191610    1.43541988183459
H          -1.35507146334988   -1.71480283972210    0.86718868065367
N           1.85336586927197   -0.28018642096362   -1.04929941144763
H           1.60022795683954    0.08383978180667   -0.08688104591685
H           1.67539309864539    0.52238473513712   -1.65696891550758
H           2.81517653804498   -0.59862692006668   -1.09565118552210
