    26
        -50.45787834  Gyration_radius:  2.45603602837 Dipole_moment: 4.239
 S           0.02536691488819    1.48514730572296   -0.07066939959914
O          -1.14341393122548    0.69838825337540    0.33687362960934
O           1.24517935113314    0.67691705682138    0.02876446664572
O          -0.14894534433339    2.02541583002896   -1.41192758622419
O           0.15922073586842    2.67289234600756    0.90073300410792
H           0.29991409368753    2.24681671272725    1.81238615791524
O           0.46848155745174   -2.97103704485558   -0.29534452431875
H           0.33822835016770   -2.40491378761125    0.49736552496612
H           1.05638162791866   -3.68000186271163   -0.03130165262539
O           1.41973698890569   -1.08237862417417   -1.91456427288890
H           1.05533236152901   -1.87103155117022   -1.44412719275526
H           1.54072107475608   -0.40131279727109   -1.21033298410182
O           0.27555672163398   -1.10970806959056    1.65928269898133
H          -0.58760150991813   -0.73969162264802    1.41216113980977
H           0.88057708106189   -0.54021274051515    1.13546092759481
O          -2.39713675862847   -0.50796833386019   -1.59123689978185
H          -1.97676452950174   -0.09309686593913   -0.79258178084499
H          -3.21455107625710   -0.02947139258387   -1.74009194399812
O          -0.40869853946880    0.14738432896762   -3.03749958598552
H          -0.27281244765759    1.02385269425390   -2.49735737117533
H           0.41055154299683   -0.47074429445083   -2.66809464107611
H          -1.25780470629836   -0.23328663305086   -2.61471975598273
N           0.51884025686673    1.43622501734267    3.16767290499054
H           1.43070183540993    1.62898097691870    3.56079194996653
H           0.46710693238228    0.44421755104316    2.94511505927332
H          -0.18416859336586    1.64861753722315    3.86324212749796
