    26
        -50.45787833  Gyration_radius:  2.45604517596 Dipole_moment: 4.239
 S           1.22372796751860    0.67426706364728    0.50891899468264
O           0.76129531445581    0.74306852206624   -0.88123955731584
O           0.13211794707512    0.24595619084204    1.38982712709728
O           2.38297305998218   -0.19873352362723    0.63252670055971
O           1.65404137563251    2.09018580689212    0.93584275216815
H           0.81162053735185    2.65233314502020    0.85387429568739
O          -1.80889825634308    0.85543041205355   -0.23861831246502
H          -1.28295187234453    0.63023818716514    0.55977590597968
H          -1.11113037370299    0.90565695876166   -0.91213275712880
O          -0.37337851006593   -2.32111678314316    1.15148310881320
H          -1.12641151908246   -2.27314308603840    0.51374041884520
H          -0.21415199920879   -1.38627301919075    1.42559379133059
O          -2.39689891111633   -1.77376071994693   -0.49151935096167
H          -3.28800211191610   -1.95241474725297   -0.18826878823346
H          -2.29388542178423   -0.79642530230419   -0.49877806442179
O           1.15112304618604   -1.40425624262819   -2.28905143170007
H           0.95294537558683   -0.54783064258425   -1.82653936393981
H           1.87258050333851   -1.21942607191711   -2.89286089146805
O           1.76270642974683   -2.51037071359343   -0.08051056487571
H           2.15632196643987   -1.62140111345555    0.28452333602847
H           0.81814623777399   -2.57432618907505    0.46119251600133
H           1.51738170745610   -2.25623335385337   -1.03959555838958
N          -0.58667957697332    3.39925669786180    0.68407385175554
H          -1.25869004846316    2.71926157369822    0.33437996923529
H          -0.53672986770742    4.16987183917054    0.03076437003513
H          -0.91917298983945    3.75018513143500    1.57259750266832
