    26
        -50.46437139  Gyration_radius:  2.49424213972 Dipole_moment: 5.800
 S          -0.97591028599089   -0.49077101683520    0.23878817660313
O          -0.87814223530493   -1.81946897959769   -0.32919358998380
O           0.34178291115962   -0.05364691746641    0.75050889370115
O          -1.52030616623125    0.50342290074327   -0.67016106906358
O          -1.94738125227791   -0.50941284362489    1.44953749411636
O           0.88892187927833   -2.74853397860878    1.38051372309679
H           0.26731060960409   -2.56646204724176    0.64186154419211
H           1.34624285065377   -1.91266708588731    1.51728457910449
O           1.53030672860292   -0.81673061897104   -1.49729188119961
H           1.21919734299382   -0.52087429354364   -0.61689630992617
H           1.11787102483312   -1.67716530238177   -1.61791754181516
O          -0.38433453211808    2.41996716215273    0.81588214457441
H           0.00011254883624    1.53215462178494    1.01785746941329
H          -1.23068765644217    2.17306247024612    0.41451484243250
O           0.04011643080468    1.00771550165199   -2.69717674653162
H           0.65279775458580    2.10858965264225   -1.98273074887785
H           0.67353734686533    0.27506369641759   -2.51166112301740
H          -0.71330115929117    0.80990199579047   -2.08832874148879
O          -1.23861192587709   -2.53205049713605    2.92847261306991
H          -1.69752418852679   -1.24596189070203    2.07461731942929
H          -1.81430815242618   -3.26466778788226    2.69904466489966
H          -0.36609918501491   -2.72400028419691    2.50237560878610
N           1.09227020088051    2.86271224193247   -1.28496965240554
H           1.04114183398500    3.79935549528633   -1.67127684487749
H           2.05511459732498    2.61041849277857   -1.08383363669183
H           0.49988266905634    2.78004931266931   -0.37982117752875
