    26
        -50.45326322  Gyration_radius:  2.48004670971 Dipole_moment: 3.057
 S           0.58790997810654    1.66414777371412    0.35252923098769
O          -0.77384939345678    1.93765439740917   -0.04563907759343
O           0.66404846896900    1.11394983273924    1.70724721503655
O           1.34076691214583    0.86952219692764   -0.59508264235667
O           1.32321597915371    3.06459781884896    0.41774895632355
H           0.72732836420033    3.58485649064571    0.94672534546037
O          -0.13052291783951   -0.96103115615532   -1.96672507592295
H          -0.81822439995539   -0.47558803996025   -2.46609813007349
H           0.46859451657555   -0.25455466665900   -1.67110381478795
O          -1.38990840452272   -0.65988347990136    0.37154230739348
H          -1.28667849417351    0.30436392283616    0.36722019124117
H          -1.02755317246709   -0.95833628172033   -0.49264982040081
O           2.23614804985107   -1.59286270616874   -0.23671477806184
H           2.13698046783456   -0.64406618143711   -0.46466194974223
H           1.56859347296847   -2.04364659128762   -0.76671666447970
O          -0.71491210837060   -2.13269704188879    2.39724191749123
H          -1.06593531774292   -1.62993616353923    1.60953487275377
H          -1.19820305734198   -1.80592970320085    3.15829582307719
O           1.58707842367395   -1.14339090100476    2.16689122034097
H           1.27500067054481   -0.15206762028733    2.01917743942261
H           0.69187760309270   -1.64622627294691    2.34156132679208
H           1.92133864911229   -1.44642626381271    1.23532990167870
N          -1.89402680298049    1.01307977963110   -2.64331463929121
H          -2.88980182909815    0.85597109609270   -2.54574889876796
H          -1.76130068874552    1.66576657427081   -3.40600703702343
H          -1.57796496920436    1.47273320697509   -1.79058320925422
