    26
        -50.45326307  Gyration_radius:  2.48005567462 Dipole_moment: 3.058
 S          -0.44203035087523    1.54965649182429   -0.80109497510541
O           0.42814083253380    0.96893283906655   -1.79772332736576
O          -1.76491766740198    0.92227965993709   -0.79436156194134
O           0.12962276647092    1.61632994682702    0.52736991106746
O          -0.68285615630586    3.05140461374952   -1.24027047208351
H          -0.93309365719643    2.96020315920013   -2.15384468040168
O          -0.66373002470739    0.26976614814348    2.66064244202242
H           0.04194528874569   -0.38732257098860    2.65934229220703
H          -0.36148893847939    0.96188233478106    2.03482731939405
O           0.10823617677106   -1.44758404323551   -0.63207981064892
H           0.76899440418941   -1.27322665721261    0.07515202078767
H           0.13118080566521   -0.65942623487046   -1.19662096943963
O          -2.10681040641069   -2.51663391766851    0.19215547898445
H          -2.62675713298165   -2.72533622959344   -0.58606692886561
H          -1.21805155178967   -2.20956480020757   -0.14287076263734
O           1.82617736663781   -0.41949012987142    1.13888291585773
H           2.56425697096247   -0.39444006846651    0.49657884773613
H           1.37823575460191    0.43139360142939    0.99481022697029
O          -2.65105729960298   -0.27266966843078    1.19195381323275
H          -2.52554592748826   -1.25031916353479    0.85555262248435
H          -1.91750978684640   -0.10659656601845    1.90305446713651
H          -2.34550528718106    0.30073022982467    0.36742674964631
N           3.19713153450630    0.07425142748600   -1.17239702518067
H           3.89861952935588    0.79637642311994   -1.28087183735094
H           2.31543819839962    0.45197064463352   -1.51631156935143
H           3.45137456791384   -0.69256750981318   -1.78323520778811
