    26
        -50.46489347  Gyration_radius:  2.55414413384 Dipole_moment: 4.639
 S          -0.63131383864386   -0.24538066460300    0.47295815848243
O          -0.20687943767385    1.17185796306063    0.40865098318790
O          -1.88599449664674   -0.40772406761315   -0.23352673186708
O           0.41459383439392   -1.10473238612070   -0.08233658426092
O          -0.85306520398239   -0.60756403867226    1.94162778957387
O           2.76938458848371   -0.95809292306262    1.09524019768214
H           1.93584423906662   -0.99516677339392    0.57639353329594
H           3.11812020728033   -1.85100519536481    1.10227385615460
O           0.79473588833716    2.45481188069723    2.52855214264431
H           0.47316224625099    2.07119577570625    1.68737836278358
H           0.02084055277886    2.79546100540783    2.98040362220245
O          -2.13638383675106   -1.82753228008033   -2.44202151553992
H          -2.34415144068099   -2.73762309046468   -2.22632859624620
H          -2.13444291242161   -1.34302758270619   -1.58519356785029
O           0.31113706449074   -0.79783134541050   -2.69280916001175
H          -0.31254534087306    0.53676633783866   -2.46414322080465
H           0.53124684110247   -1.00351465814117   -1.75469772951717
H          -0.49351805768405   -1.33149721782837   -2.86523102642427
O           1.29765044495288   -0.10889911719378    3.15585389345498
H           1.98587710452795   -0.40123260563252    2.51755470304501
H           1.29108646459534    0.87036110947547    3.10358668618119
H           0.02003383420627   -0.44655813223133    2.47726345373427
N          -0.86465527715142    1.39899916540816   -2.05916342066242
H          -1.85436632354844    1.15658923707520   -2.05158226845205
H          -0.68869987541807    2.26139950038624   -2.56506152008136
H          -0.55769728899208    1.44994009345428   -1.02564203071238
