    26
        -50.45326321  Gyration_radius:  2.4800457365 Dipole_moment: 3.058
 S          -0.11292636274774    1.77912455229789    0.24703046896288
O          -0.44860611105949    1.34835114581152    1.60551195025800
O           1.29686964568170    1.63467138111089   -0.03462176610573
O          -0.98539476089498    1.17848735287939   -0.73995850639197
O          -0.41963457244117    3.33158619173382    0.20245333299006
H           0.25728009005890    3.69071701066196    0.76669807781791
O           1.10972071992691   -1.00387043730671    0.51580081802317
H           0.74564734041609   -1.23506931201420   -0.36804417151532
H           1.28740578428981   -0.05151306033054    0.47259903401370
O           0.00310472645943   -1.06570750129591   -1.91644701024821
H           0.83763336111730   -0.82262984875470   -2.36631725654618
H          -0.39000110346499   -0.20364503582141   -1.69798516058084
O          -2.57264448764706   -0.90725869427607   -0.38895058507620
H          -2.18869421299782   -0.03911754301999   -0.63582667731807
H          -2.02260392758833   -1.55669187881550   -0.84220664271037
O          -0.11422294577113   -2.11229427118910    2.51614419001909
H           0.42621250574874   -1.77325904779884    1.74841911783535
H           0.38150051377520   -1.89417219374627    3.30748541191680
O          -2.01180486434848   -0.52748749294621    2.04866215208580
H          -1.31422958630887   -1.25220312273580    2.31880794995535
H          -1.41862268244439    0.32564827678332    1.89949824385086
H          -2.34502133720570   -0.77466838717457    1.10040798194118
N           2.30452872889779    0.28998542924083   -2.49146501068555
H           2.42336506506946    0.91057989522846   -3.28269196785911
H           3.20324097198229   -0.13590937928646   -2.29985888091257
H           2.06789749201382    0.86634597068027   -1.68514510325983
