    26
        -50.46277969  Gyration_radius:  2.44220264097 Dipole_moment: 2.174
 S           0.86052855402215    0.87124780968846    0.49601033969023
O           1.45962850675956    0.86196915265383   -0.83291941179696
O          -0.54526723013292    1.24835257189926    0.43917019086020
O           1.02094793157809   -0.42217737342890    1.16179854822489
O           1.61749408135046    1.90293407146108    1.37542194780791
H           1.44903056261858    2.74636290202000    0.88463761842857
O           0.67026815291669   -2.61649979996758   -0.25519103640876
H           0.99984650805048   -1.87929947889193    0.30865005934519
H           0.63603200936420   -2.23497608436888   -1.15177938874512
O           0.32614593103331   -0.89903684952650   -2.32885256244060
H           0.79455566974629   -0.20309306385416   -1.78701059804360
H           0.67915726650939   -0.82660538627848   -3.21674874420314
O          -1.97994485478309   -0.41612605035236   -0.94201624729350
H          -1.55185152623942    0.29104316321875   -0.39069777004668
H          -1.33422096315225   -0.60075189943416   -1.64771089367604
O          -0.93654136508406   -1.22627571884106    2.66809812245583
H          -0.19967378065063   -0.77777220283339    2.17999384917597
H          -0.52196986897162   -1.74224849493596    3.36247799855238
O          -1.70175986451387   -2.39949355265450    0.54006866412583
H          -1.95683271342603   -1.57396304467831   -0.09157495993393
H          -0.73719223113331   -2.64932298469791    0.20227449886049
H          -1.53841837786274   -1.98397030567184    1.46079081370090
N           0.76917769459513    3.62420576524209   -0.38567256565954
H           0.68034513000349    4.58774263725205   -0.68339473182579
H          -0.15546771061215    3.23358091858408   -0.23605569197001
H           1.19598247801092    3.08417328839657   -1.12976805918547
