    26
        -50.46277965  Gyration_radius:  2.4422039922 Dipole_moment: 2.176
 S           0.55684825905233    0.90106748132885   -0.78963540000523
O           1.37445444630735   -0.20238851088648   -1.27864694427514
O          -0.86270057943466    0.62240646629583   -0.95897867331664
O           0.85877246819897    1.20869291250151    0.60897976157932
O           0.91307878552557    2.17913172446957   -1.59613779326291
H           0.66523842080704    1.91092418020688   -2.51656263222639
O           0.91953217546701   -2.34224207874141    0.07698011231447
H           1.12798271192272   -1.53787403096036   -0.47697511766612
H           1.40371579980923   -3.06917711745959   -0.31729754448830
O          -1.12776521829517    1.93924789956764    2.11478818759759
H          -0.74673485035237    2.54344463564155    2.75509680504577
H          -0.42453071331980    1.77758008067013    1.43534466669144
O          -1.64795284259426   -1.45445693497492    0.38463872942621
H          -0.86150928249622   -2.01257243544017    0.24646494475115
H          -1.48221243447545   -0.64743166137577   -0.17098212797425
O           1.23230048158411   -0.79237939915723    2.28329436748056
H           1.29484883313680    0.01128283557620    1.71745596918956
H           1.28204667824161   -1.53371121499295    1.65195957437166
O          -1.23693401483951   -0.54541216888633    2.66768811597159
H          -1.53925704368956   -0.97009596922477    1.73287615606259
H          -0.19672907205496   -0.70322652242365    2.65865190647786
H          -1.33213572310143    0.46516688872597    2.53922780151077
N           0.05974733426968    0.80342737553759   -3.63668849911261
H           0.71462866253509    0.06203221050450   -3.41521492548536
H          -0.16637930928816    0.76343871925794   -4.62269047111678
H          -0.77835396291447    0.62312464424725   -3.09363695953384
