    26
        -50.47063276  Gyration_radius:  2.4247944611 Dipole_moment: 5.303
 S          -0.65574537261599    1.79527010324594    0.71831258328900
O          -1.26996851189416    0.97680085279454    1.75098717913577
O           0.80290021320213    1.63127495394196    0.71856082418605
O          -1.21988454512153    1.62058622444036   -0.59293424858259
O          -0.92910282525494    3.29284767545460    1.15372450465538
H          -1.00282955038567    3.20201552362378    2.09749904337609
O           2.17177280089906    0.44518042652493   -1.14836516102081
H           2.98589637247913    0.93703842764844   -1.26366487937193
H           1.63461792661548    0.95917246906998   -0.49128546440154
O           0.93282475735715   -0.46103123966228    2.29830795832669
H           0.00253034224681   -0.41185761293979    2.55277722105473
H           1.06117105154824    0.38603844092091    1.81826883439837
O          -0.87688908801439   -2.12103643569022   -1.16401753210824
H           0.38577870288569   -2.04752794570072   -0.41061278878170
H          -1.60290130587360   -1.74440523113955   -0.61347672758327
O          -2.65354286804255   -0.66243104433527    0.18070051505551
H          -2.86524881819312   -0.03093762743466   -0.51321147898241
H          -2.20515433247351   -0.12414106571778    0.86085690637085
O          -0.24771453799956    0.04739570518307   -2.55084002852964
H           0.69424673674755    0.18472021266511   -2.38831084075662
H          -0.71896131448172   -1.43115074105279   -1.85414987678939
H          -0.69355163357484    0.68763700435420   -1.96471915129486
N           1.35099804692765   -1.85721783535550    0.08507084870749
H           1.17599348838261   -1.44213625743792    1.04312595269748
H           1.83745380312814   -1.12850943124751   -0.46837904932909
H           1.90531046150460   -2.70359555213513    0.14577486629117
