    26
        -50.46049372  Gyration_radius:  2.43418338489 Dipole_moment: 2.668
 S          -0.02412232111101   -0.16396668512436    1.85224492872049
O          -0.66524551000435   -1.19495992360391    2.63055276226529
O           1.01260177238533   -0.64503217600670    0.95648248733867
O          -0.96012396899279    0.71213930279321    1.16340664852337
O           0.72494161121191    0.75540778728331    2.92691811348064
H           0.38660249515064    0.41298975083992    3.74801354182186
O           1.28352429587841   -1.15523106449256   -1.58803831058985
H           1.98155105495147   -1.80549376156880   -1.67535428323047
H           1.18931244178572   -0.98765423570204   -0.61900247580604
O          -1.40510754316034   -1.44987717887387   -1.85653194831653
H          -1.63162866082395   -1.87118698154566   -0.99771250338070
H          -0.43568828883587   -1.52654435108732   -1.93531963326398
O           0.85433025346636    1.52603555935257   -2.06297275952533
H           1.21583463601625    1.87717175025122   -1.19974086701274
H           1.18183949639150    0.61241965111567   -2.12479511406561
O          -1.88982447553055   -2.34932409778164    0.60512016314279
H          -1.38876423583938   -1.98331630912863    1.36360483129129
H          -2.80546210751996   -2.38348287711517    0.88896950407755
O          -1.46231038591197    0.99145893923773   -1.29992323277863
H          -0.52373798795625    1.30871511205412   -1.69812603536840
H          -1.55203866852367   -0.01494475566192   -1.60435255653050
H          -1.31669939439187    0.93638452568852   -0.29284033992288
N           1.54435962945178    2.11705419259536    0.42338269465380
H           1.53407833168058    1.15545704888516    0.75421220635443
H           0.76069975972146    2.57175990138458    0.87643725575470
H           2.39107775051521    2.55402085620301    0.76536492236762
