    26
        -50.46049369  Gyration_radius:  2.43420669509 Dipole_moment: 2.668
 S           1.06458419723074    1.02464899590392   -1.12926537458220
O           0.14416463790990   -0.02529439429457   -1.52803830507654
O           0.76082719092130    2.32360030721099   -1.67714236366445
O           1.27101982138334    1.03440823802142    0.31133019657186
O           2.47648764611080    0.62884267988555   -1.77049770304643
H           2.73430391460835    1.44120454357263   -2.19423465684587
O          -1.45377840954687    2.69308057939590   -0.30115967990742
H          -1.31946155783533    3.54878384653764    0.11100275386036
H          -0.67415868592080    2.54897084626078   -0.87719405849864
O          -1.87550911116842   -1.31759092885130   -0.49867354918386
H          -2.41333485300952   -1.63163802838477   -1.22657037362777
H          -1.12661047043340   -0.82151441795823   -0.90976876500128
O          -2.33563868467862    0.71261366833118    1.24908788145747
H          -2.11136196036230    1.49065715247984    0.69159641181830
H          -2.42291296402102   -0.03479845930439    0.62813439119090
O          -0.13765392727039   -2.31289525467475    1.39559815846434
H          -0.86947884674382   -2.22539233020678    0.76112409176653
H           0.69427781017284   -2.29162582460655    0.84193896152407
O          -0.10987438217219    0.05415111750971    2.19020645761091
H          -0.10130082254581   -0.99055459161932    1.96988369000399
H           0.49866189282679    0.47653101783083    1.49036811064237
H          -1.07815665965005    0.37382399653764    1.91865428433906
N           1.92843083248365   -1.81480630370261   -0.18267300301016
H           2.55056603730455   -1.17202140777921    0.29260855574204
H           1.40436086533734   -1.25089870340264   -0.84718874552353
H           2.50154646906517   -2.46228634469217   -0.70912735702595
