    26
        -50.47063283  Gyration_radius:  2.42473644736 Dipole_moment: 5.300
 S          -0.95236438735607    1.22158022722825   -1.32994639968271
O          -1.83798906863635    0.31664643560351   -0.58747746876707
O          -0.45346589787317    2.28139696567072   -0.46887152432259
O           0.06912679903953    0.50957169491184   -2.04948404589203
O          -1.86487538069563    1.94776218248671   -2.40090908370777
H          -2.14076777033564    2.71936694549551   -1.91827499381821
O           2.36958819197911   -0.69192498337732    0.72671671376283
H           2.40508483980370    0.23297415084922    0.38699501799907
H           1.16458067248794   -0.85410038148246    1.55675543880472
O          -1.27478839344194   -2.14646715086150    0.03083834884148
H          -1.49489594170649   -1.23199246182202   -0.28499403841064
H          -2.08039752389411   -2.65690776165750   -0.06101265688390
O           2.12767370577992    1.64750783865430   -0.52233192635760
H           2.16361410783216    1.32337847020346   -1.42716232611843
H           1.21736639304411    1.98835322387611   -0.42971281968317
O          -1.28195867226267    1.16884608925463    1.83201860286818
H          -0.78668186933701    1.93724118069037    1.52070748685681
H          -1.69443645125439    0.83927584690285    1.00392456629081
O           1.17548778981147   -1.84145591878392   -1.34075878677254
H           0.38832710364627   -2.26331697192367   -0.97338747463046
H           0.84492387076849   -1.01935436666640   -1.74950149812501
H           2.11959257732698   -1.22718114674047   -0.06581889760811
N           0.19363694408997   -1.02145307748147    2.04955086555090
H          -0.33293517493424   -0.10464098986955    2.10458031670028
H           0.31443299831437   -1.43284885809912    2.96794742752742
H          -0.35787945219498   -1.64225716305706    1.42960916559449
