    26
        -50.46125520  Gyration_radius:  2.40981779841 Dipole_moment: 3.115
 S           0.21381980917132   -0.74584783674109    0.78410907495637
O           1.11404458401832   -1.49706669098511   -0.09624370990528
O           0.64632557031036    0.64816662847565    0.88142215124961
O          -1.16351268120474   -0.84225154788035    0.32667969550559
O           0.28166321167401   -1.36648628527081    2.19727717636954
H           1.25695079112174   -1.27021800419736    2.40676308225294
O          -2.19256486238277    1.32917101281159   -0.88854832946934
H          -2.22524752794861    2.00945080654884   -0.19782919077123
H          -1.95962768825611    0.52260823025815   -0.38764514401358
O           0.32988915092992    1.51651862087635   -1.60666161961606
H          -0.65500680978755    1.61769671959693   -1.51779630038907
H           0.62549834590806    1.36440527192858   -0.68261301525442
O          -1.41679546118765    2.26844060191509    1.56412024127308
H          -1.78669698952611    1.90842936315653    2.37121331611543
H          -0.61167802235629    1.74903347623818    1.38006580546310
O          -1.88149146814969   -1.40003363934097   -2.17792280588368
H          -1.76025697945697   -1.43735066205101   -1.20652665546871
H          -2.44069008262752   -0.63187525646427   -2.33590653506201
O           0.58437112475305   -0.80568175204355   -2.43767690652880
H          -0.39155451048938   -1.11324968715022   -2.51274390974824
H           0.52856211968835    0.25461039470751   -2.21015148813202
H           0.89999561250505   -1.19662880308287   -1.52748482931159
N           2.80294914694618   -0.82111984705417    2.11168515056213
H           2.89694944872756   -1.30651524825683    1.22648801626193
H           3.66367773531000   -0.91062712424949    2.63676785459664
H           2.64042641230949    0.15642125825170    1.89915889494789
