    26
        -50.46049374  Gyration_radius:  2.43416852673 Dipole_moment: 2.667
 S          -0.28485635327157    0.98522350153242    1.55126394929021
O          -1.39344816728124    0.87361270493808    2.46678831948017
O           0.51632723399572   -0.21961499048334    1.42865147183451
O          -0.65787655173368    1.51282203755878    0.24718666420926
O           0.67961184292593    2.08145181132318    2.20649845945857
H           0.14133853995295    2.41753060498405    2.91595195890423
O           0.79277754835992   -2.19341702790985   -0.25533979846456
H           1.13402473990814   -2.94148637792125    0.23624392973879
H           0.68366129877582   -1.46433048446054    0.40230495250753
O          -1.70344119392061   -1.75739586264652   -1.23832444155543
H          -0.86650944425823   -2.15522433480131   -0.93311501168497
H          -2.18037491621986   -1.49260065583188   -0.42047993434166
O           1.65021272885677   -0.34714314437190   -2.11407685144646
H           2.03911936011765    0.31769307067085   -1.47702019631979
H           1.54240045981977   -1.16395422245366   -1.59738219778360
O          -2.78761661285089   -0.81835890342735    1.00797388251496
H          -2.25719408961201   -0.24716465444313    1.60185887774337
H          -3.64657100244808   -0.39701195730616    0.93860486417783
O          -0.72767523992001    0.40989984211147   -2.02809496624404
H          -1.22305422476147   -0.49377270077955   -1.80083458171558
H          -0.72608799224648    0.92291906797695   -1.14759910015375
H           0.28958416877982    0.12532597310585   -2.18409350082566
N           2.27138214607645    1.36104027370436   -0.18950412586088
H           1.72939363006710    2.20669038599416   -0.32107834018283
H           3.18393447604464    1.63293354963134    0.15424256552240
H           1.80093763484502    0.84433247330907    0.54937317119981
