    26
        -50.46400440  Gyration_radius:  2.43656044164 Dipole_moment: 6.310
 S          -1.02759849696398    0.91594116755777   -1.78420540273646
O           0.16244525231915    1.36474781763593   -1.05743763504057
O          -0.71333928787286   -0.00357350184349   -2.85377152722166
O          -2.06340221102325    0.44062116494593   -0.89765071265319
O          -1.58026382792621    2.23943818204064   -2.47333462591450
H          -2.29226935611649    1.89018126364874   -2.99842232009329
O           2.30908629919269   -0.05922825899545   -0.91546527574249
H           2.99306797343045    0.34330080092408   -1.45183830477558
H           1.49414285765792    0.49963289247260   -1.05165129506833
O           0.03207960651531    1.80962351787171    1.53978441246027
H           0.03103027769327    1.85241156051864    0.55717921709840
H           0.95962582777996    0.71874989710051    1.71646490210271
O           0.14702875250409   -1.84882962950439   -1.20084469398616
H          -0.31736453917843   -1.26647689721773   -1.83823023467089
H           1.06587435367978   -1.55199927363472   -1.23211829307541
O          -0.38117732788175   -2.04074576031469    1.34715474733318
H          -0.30889732989534   -1.95495297025368    0.35651316541733
H          -0.60701751072497   -2.95640674559169    1.51440074905819
O          -2.03776559492141    0.22493067538892    1.73937700357018
H          -1.62186268512951   -0.64704480690422    1.79050895140329
H          -0.82970286037359    1.36127924086149    1.75930219548028
H          -2.22831433302824    0.33882952927225    0.78487864342492
N           1.58531263159453   -0.20842797911525    1.69515207338060
H           0.92085205003752   -1.00675861358438    1.72022631403912
H           2.24631256332555   -0.24672217889614    2.46180530563263
H           2.06211691527975   -0.20852111437300    0.77222265057812
