    26
        -50.46049375  Gyration_radius:  2.43416512586 Dipole_moment: 2.667
 S           0.32005978617874   -0.37563203801489    1.79295988506626
O           0.13775392777930    0.93986051475378    1.20573847133360
O          -0.65199975514766   -0.71835193812837    2.80156909620168
O           0.48306415762024   -1.39837799469532    0.77043710082053
O           1.71582302327109   -0.31161318205583    2.57328912026456
H           1.48078091173736   -0.66513731011812    3.42521407729679
O          -2.70246092197215   -0.89970863021801    1.15922248754470
H          -3.06411588332455   -1.76743657717132    1.34996818325979
H          -1.97290068774603   -0.76779328877146    1.80005359135363
O          -2.34174622622402   -0.26361675660437   -1.40368730385219
H          -2.58543369434244   -0.49422862449789   -0.47963567703446
H          -1.99825512132164    0.64856094172871   -1.36133438710268
O           1.16469936729020    0.62896668727224   -2.35821219765171
H           0.50881413495827    1.29359854258952   -2.08643369443400
H           1.84660705325288    0.61816506758935   -1.62746771292188
O          -0.82884581954134    1.95704168026779   -0.99411890563676
H          -0.47971080523149    1.58819828060766   -0.14676682628590
H          -1.10074148787618    2.85435644158345   -0.79762352030430
O          -0.12694713756299   -1.39894880120974   -1.68438073214160
H           0.14675094149291   -1.47513230754961   -0.70573236265988
H          -1.10927793994558   -1.01493617797008   -1.64980775684750
H           0.46021643043799   -0.59675300350355   -2.07407467688486
N           2.61195758650281    0.44978709147313   -0.14891460371019
H           3.44996577629437    0.95555877565972    0.10947225774464
H           2.77070788644484   -0.52983581478918    0.05433832087090
H           1.86523448697773    0.74340842176827    0.47592774571325
