    26
        -50.46400452  Gyration_radius:  2.43642449976 Dipole_moment: 6.309
 S          -1.11016430049335    1.91871801937184   -0.40427187473026
O          -2.07740359021659    1.97488796873567    0.66781685569393
O           0.25724130207808    1.71241109828339    0.07900104205315
O          -1.46421328231497    0.99498044585192   -1.45595440928266
O          -1.07354102729023    3.36944347434137   -1.05715798769157
H          -1.98980148543894    3.49455214693462   -1.27957031903611
O          -0.60267506378683   -2.39644536829368   -0.12770757988578
H          -1.08839118367608   -1.65702869608842    0.33178095915995
H          -1.16001278340606   -3.17037144713067   -0.03879626082967
O           0.76821865760318    0.51612330521839    2.30708166322483
H           1.08341957915807    1.15634451773874    2.94612422787273
H           0.53662788755179    1.04003557570414    1.49053461672792
O          -1.67116214539016   -0.52595331263075    1.34508067113197
H          -0.98934667850183   -0.31592455732841    1.99647603700166
H          -1.97798973054625    0.34825829561834    1.02477578817924
O           1.94971488572687    0.26134498160998   -1.33162208717708
H           1.40086991494319    0.96545519465362   -0.91882364797616
H           1.96502421545923   -0.68112887468461   -0.23969101367249
O          -0.03523517381927   -0.96757026874354   -2.50828281098113
H           1.32358987014221   -0.18996137830012   -1.96109607839455
H          -0.26345230391644   -1.64980485934748   -1.86143426055388
H          -0.63655229307116   -0.22551071002333   -2.28902841070334
N           1.78413331840769   -1.35999916022163    0.63114334590195
H           1.52192035408833   -0.74165305992524    1.42370702113017
H           2.59072809919084   -1.93261839463390    0.84940188900348
H           0.95845293752281   -1.93858492670489    0.38051262384422
