    26
        -50.46437116  Gyration_radius:  2.49440911306 Dipole_moment: 5.805
 S          -1.05010101741758   -0.24480140080935    0.29185751677593
O          -1.31598095266526   -1.54155192707797   -0.29581150565314
O          -1.38471333493572    0.87601521289900   -0.56990684510801
O          -1.92424747031984   -0.05605403473190    1.56084268006204
O           0.36209822157113   -0.15763800165673    0.72462836649897
O           0.26324966332766   -2.91969288362752    1.29038114430376
H          -0.33570030157971   -2.57168429175505    0.59374070017989
H           0.91976468083055   -2.22558323672027    1.40734472143754
O           1.19263972056681   -1.12951117726725   -1.60188071814014
H           1.01676774252863   -0.78985512757482   -0.70014157363003
H           0.57226515219987   -1.85692944463211   -1.70680379798253
O           0.26905122581201    2.41549429596878    0.86894797216964
H           0.43527197745505    1.45523729844426    1.03370496703098
H          -0.63404848826965    2.39432832279259    0.51936778950947
O           0.13512219820396    1.03905628852238   -2.68194916971571
H           1.03660067589508    1.93869353447590   -1.99328411742294
H           0.57849449696923    0.16885026718991   -2.54506540315812
H          -0.60830907636130    1.01463499597195   -2.03061292689729
O          -1.65178688094072   -2.22820081970751    2.97035735643415
H          -1.82815687272469   -0.84741157116952    2.16100656442920
H          -2.40258717864861   -2.79114400718170    2.76990949025293
H          -0.87977631297358   -2.61724982289120    2.48826680140612
N           1.68451543055130    2.54658734533797   -1.31517381438427
H           1.14326786996339    2.58403870797630   -0.37580678927951
H           1.83781391184945    3.47825102827696   -1.68617200020339
H           2.56848491910591    2.06612045894870   -1.17774740891553
