    26
        -50.46062684  Gyration_radius:  2.58234403832 Dipole_moment: 4.391
 S          -0.45001385404008    0.60015488264582    0.38524196653437
O          -0.00952128952896    1.74885205750583    1.13954667900172
O          -1.95675879473334    0.70878227740142    0.06556746661641
O           0.26547735238690    0.51503537327125   -0.91795071013879
O          -0.25656573462839   -0.64759390252296    1.11331807998892
O          -2.78312674518858   -0.81871847001469   -2.98078491431746
H          -2.12725929038005   -1.32840452787453   -2.46097070373521
H          -3.63333424220188   -0.97114787810474   -2.56486318091964
O          -0.89843422208525   -1.84654988399794   -1.31637657837727
H          -0.39046127186288   -1.01605649962099   -1.35044635466414
H          -1.08981173417349   -1.95155519642840   -0.37819558309190
O           1.13870357963386   -0.63925951716535    3.36019356211803
H           0.55899159069387   -0.70085058417354    2.56771431271881
H           0.55425247917824   -0.44452767739839    4.09426411838656
O          -1.85758482528728    1.60285379853906   -2.31358078197762
H          -0.90195135366530    1.46392939099935   -2.29741771950945
H          -2.24113134547105    0.80258657387765   -2.74399511482421
H          -2.03807239775504    1.17949519886119   -0.82754148244752
O           2.40275572255724    1.29910900085881    2.04873433833630
H           1.54891248406869    1.69899214520080    1.75270301293505
H           2.12930144167658    0.68712119587986    2.76723121390516
H           2.57282308387704    0.33967775808944    0.96408171013869
N           2.43944804186962   -0.41320252374505    0.15135345399938
H           1.62276705149625   -0.03286997500574   -0.42486729640974
H           2.12672450036458   -1.28410780672789    0.57718236484377
H           3.27386980319577   -0.55174522035848   -0.41014187911443
