    26
        -50.46309538  Gyration_radius:  2.39399245189 Dipole_moment: 2.609
 S           1.04474667156126    0.89635370763190    0.73931879250683
O           1.27381593739619    0.49025220711203   -0.64577313958345
O          -0.40605829839300    0.89184634563352    1.00868355662660
O           1.74756761643489    0.05949683146877    1.68585971001291
O           1.53784566402772    2.35151497149879    0.91106656817697
H           1.12154981828620    2.81035318126164    0.12613905217778
O           1.21653713677754   -2.45109061670750    1.45041744737937
H           1.48612867027250   -1.49901176459251    1.56980232960839
H           1.83156953896171   -2.96643337728591    1.97433584319612
O           0.75437535469948   -1.98339256212101   -1.18648607626269
H           1.02211239068637   -2.39377535499322   -0.34231995428147
H           1.04221020593681   -1.03532728830419   -1.09929419999482
O          -1.98657962257479    0.86282224954854   -1.00651889792535
H          -1.32902463266363    0.96782642997126   -0.25957020314136
H          -2.83647045197877    1.12154044654078   -0.64354588058120
O          -1.33041087586142   -1.49430064420957    1.60377088827258
H          -0.52220653694664   -2.01605533058577    1.75673988209983
H          -1.02422486633187   -0.55582633165184    1.56904478748045
O          -1.68959187316327   -1.68474194243211   -0.86962880036898
H          -1.85789500104397   -0.70425301829761   -1.08804515733996
H          -0.65511776369679   -1.87372601995494   -1.12290181126810
H          -1.66323379657859   -1.70362764827672    0.18553161260091
N           0.39308531902413    3.03972876578842   -1.33350436291595
H           0.79327131005463    3.67234624348933   -2.01409697515856
H          -0.61478145689230    3.11083222581474   -1.38781517874334
H           0.65077954199078    2.08664830364537   -1.58120982258753
