    26
        -50.46309540  Gyration_radius:  2.39399298857 Dipole_moment: 2.609
 S           0.98768027831999    0.20697308389956    1.19304322296929
O           1.33062957584017   -0.44667426319668   -0.08466466947871
O          -0.09999645771714    1.15635630775481    0.96610626501796
O           0.66474215367477   -0.77471314684929    2.20409121138047
O           2.23607996539644    0.99349974285171    1.65456320376582
H           2.28107018673660    1.73281096574004    0.98275159405808
O          -2.39547932470781    0.11230767894425    0.39887572259278
H          -2.34770272308814   -0.69301210388352    0.94834484746369
H          -1.59008671705090    0.63426994163364    0.66000616844068
O          -0.24939783688853   -2.46534803587130   -0.65980577865846
H          -0.72847375767315   -2.61971816274671    0.17413523538053
H           0.48262969270075   -1.84645729596142   -0.42150676289574
O           0.49879442103162    0.65525900243300   -2.24188290195860
H           0.87655078805338    0.31859378274916   -1.37857780075241
H           1.02631730903876    0.24892417780375   -2.93297124707473
O          -1.50378750886171   -2.08325748888251    1.72910512358485
H          -0.67576946739815   -1.59025343432419    1.98348857854402
H          -1.75936258072066   -2.58582340130872    2.50397383504266
O          -1.62880648439369   -0.71775340963993   -1.81146215032347
H          -0.88726977252620   -0.07452995957917   -2.08305625809379
H          -1.10687126159144   -1.55480872739834   -1.43563393970441
H          -2.06741782021900   -0.30533751482033   -0.91275048311488
N           1.83030589845598    2.78982904840356   -0.19766659385166
H           1.95861325154411    3.78554380197867   -0.07256809119615
H           0.85980671258240    2.55708412534808    0.00255991897554
H           2.00720147947576    2.56623525494934   -1.16849827011167
