    26
        -50.45852416  Gyration_radius:  2.50834496467 Dipole_moment: 1.940
 S           0.80314785085403    0.65332034249968    0.97235347120952
O           1.86851860089113    0.27182866226384    0.05531903222987
O          -0.22411124987120    1.43754202717807    0.26724084151881
O           0.21200864882360   -0.50565794636537    1.62343787138473
O           1.38948746053498    1.55676612939534    2.08237239989350
H           1.78641738799103    2.29632059199887    1.54336539505519
O          -2.22024009903851   -1.58072796866972    1.30282127622398
H          -1.86087567749951   -2.45572737152226    1.12308083174965
H          -1.44325487853558   -1.04121239791182    1.55020390027054
O           0.80474457443779   -1.30566671666257   -1.74486750327021
H           1.37855065031896   -0.74033985457181   -1.17440049819945
H           0.53544090878029   -2.04028186027099   -1.15483751739570
O          -3.16496722201559   -0.64245934014280   -0.94391018486320
H          -3.82359304891438    0.01693023998135   -0.71899484815537
H          -2.85962848777644   -1.03619179844037   -0.07942516255472
O           0.30903698553058   -2.85138684457993    0.40617337987152
H           1.06528106470802   -3.37043384221507    0.68375269451059
H           0.34935176913084   -2.01371028144979    0.92130803665443
O          -1.02363995723551    0.39560705991688   -1.83155621212032
H          -0.69902083921828    0.91594914253606   -0.97018339163154
H          -0.30184232452573   -0.37201750584158   -1.92681685321480
H          -1.91636130564663   -0.04019425782647   -1.55911387652500
N           2.23461503929792    3.08141061095849    0.15403900221895
H           1.37348946149259    3.42743564158926   -0.24961704339515
H           2.45231868433998    2.19791069872688   -0.29763234530749
H           2.97512597315000    3.74498685941321   -0.03411271615112
