    26
        -50.45260217  Gyration_radius:  2.47843739497 Dipole_moment: 2.284
 S          -0.29718679132491    1.76794768528248    0.31514419227907
O          -0.59656357300881    0.84137531765303    1.40043481656706
O           1.10653481611620    1.78205485969383   -0.02678914383824
O          -1.18097297446241    1.57019966283912   -0.82170398050653
O          -0.63948874306632    3.21511781567629    0.85966162570522
H           0.09665483938946    3.40668003674878    1.43085157026525
O           0.87962851987803   -1.42751545846728    1.27901155072725
H           0.41540774533625   -0.60056700396877    1.49949258693960
H           1.82433196580180   -1.19320688993153    1.37525127682409
O           0.79688913817398   -0.61506794628588   -1.26566633275612
H           0.91814630135740    0.31582942877661   -1.02400904429745
H           0.86660908608682   -1.10801748409633   -0.41744253877651
O          -1.20627375636741   -1.40916700797891   -2.71164375392385
H          -1.16751215459495   -0.92427780143519   -3.53823938102934
H          -0.37792501831684   -1.16388860125450   -2.20899709374439
O          -2.08829762955732   -1.32597558379668    1.18741158410992
H          -1.65728249903207   -0.48557737586579    1.45896019304161
H          -1.37003666985016   -1.96863737791183    1.15585744559371
O          -2.75103761726338   -0.34407684167655   -1.04173389359839
H          -2.21883141424546   -0.85876874535652   -1.77909734860724
H          -2.59263022608434   -0.84778394021776   -0.14849889974761
H          -2.19327156145830    0.53063071274267   -0.93490659505856
N           3.20828963348352   -0.00181201133771    1.09044565026721
H           3.78542936448001    0.41112619077777    1.81265479803471
H           2.61611925792196    0.73484843589183    0.71010179087559
H           3.82326994057345   -0.30147006648059    0.34344891464831
