    26
        -50.45260276  Gyration_radius:  2.47844427167 Dipole_moment: 2.271
 S          -0.09109783765779    1.14411392748013    1.41318452550257
O           0.59170047246352   -0.12586380172097    1.63046445452039
O           0.57803142138988    1.96955660677126    0.43426469047571
O          -1.50974578215680    0.95693873404023    1.15855496663300
O          -0.01645817129506    1.92847207421154    2.78686907709173
H           0.88496885646559    2.23140864357528    2.80964187014427
O           1.64197200174731   -1.15437705385867   -0.64574749008265
H           1.43928883420808   -0.80602751107299    0.24054721788340
H           2.31993001232172   -0.53677675052606   -0.98574269036426
O          -0.37549566280222    0.35747173426876   -1.53256480667233
H           0.34130816018433   -0.30181257810522   -1.39520249102491
H          -0.18354848979172    1.06953455991384   -0.90343112306999
O          -2.71866600742549   -0.74671404547041   -1.68620787932255
H          -3.34756493350210   -0.04897529345666   -1.87990140099565
H          -1.81468921709685   -0.32206334269310   -1.72589539651815
O          -0.39207414611498   -2.50509711374639    1.04819140345395
H           0.10539635457743   -2.65031401132915    0.23501598495886
H           0.03349120296388   -1.72240809696445    1.46305271446030
O          -2.56878450816762   -1.25764245111231    0.76850963704274
H          -2.18566169197935   -0.32664483878051    1.04078242222536
H          -2.73064545774581   -1.14083001341846   -0.25720782101428
H          -1.75913959720899   -1.89771920122726    0.87490176201121
N           2.93192789601097    1.19275042417728   -1.20962066478593
H           3.82236006126282    1.54759852264429   -0.88340647066789
H           2.20250464236795    1.62073812807595   -0.64148370882976
H           2.80069158698252    1.52468275832464   -2.15756880305448
