    26
        -50.45260306  Gyration_radius:  2.47847992753 Dipole_moment: 2.265
 S           1.72886480517549   -0.22238832760809    0.52573311487224
O           1.49126702196985    0.00672800177591   -0.89458367249925
O           1.33739212454884    0.90571181588059    1.33912512366767
O           1.17426112601655   -1.49106317385966    0.96772136577895
O           3.29614948324816   -0.37424085071905    0.69414035681391
H           3.60591187440549    0.52173293942397    0.61587309636033
O          -0.78209599771711    1.40343222595489   -1.36562869789513
H           0.11689119886202    1.03492703177932   -1.30193901708673
H          -0.69668416854700    2.28857595194410   -0.95838341988789
O          -1.26628989607541    0.22060975059588    0.98143212633215
H          -1.30421500029628    0.66387945873284    0.10426368844702
H          -0.36835187475768    0.38712615748012    1.30651080951491
O          -0.22611659006409   -1.33069381647334   -2.38789479959219
H           0.55418618245500   -0.86626911847742   -2.01210122131198
H          -0.92073887129706   -0.66217013549962   -2.40823258014314
O          -2.29129938998862   -2.16285896830542    0.93151296114685
H          -1.98428503834627   -1.21314416305438    0.98430147302512
H          -2.27134168380469   -2.49793730456246    1.82994059334170
O          -0.31441412234369   -2.91414507543423   -0.42391797620012
H          -0.35568946283396   -2.37144504550380   -1.30729804224909
H           0.39622613536656   -2.40601038856316    0.14574697900367
H          -1.19943249988448   -2.71627758629001    0.09502430119031
N          -0.03994171903745    3.36582624869180    0.39196866231352
H          -0.75803480338735    3.62365829385555    1.05817981563282
H           0.55803439355157    4.17242703663106    0.26155593925641
H           0.51974676278220    2.63400905160559    0.82694903017380
