    26
        -50.46277969  Gyration_radius:  2.44223237605 Dipole_moment: 2.174
 S           1.02508591689046    0.72628628857692    0.40891816053131
O           1.18216329946718    1.08577828514400   -0.99504632476818
O          -0.30232573155948    1.07331847131580    0.89801309046865
O           1.30074803588882   -0.69407793146288    0.62916697364749
O           2.08099853041913    1.50201265574340    1.24204447423094
H           1.82335815683275    2.44198147739759    1.06695755513788
O          -0.14212089180600   -1.91539772164261    2.41066296974362
H           0.43468623944615   -1.33630414340671    1.85004307558196
H           0.43314719984405   -2.58855190335220    2.77968182889949
O           0.39040911001318   -2.43749628533591   -1.12533490256636
H           0.10511734756715   -1.83111142409894   -1.83353277269155
H           0.92435751089098   -1.87050125270682   -0.52248516579593
O          -0.46732713579413   -0.23675181760459   -2.46297021636664
H           0.18864320523015    0.29958395525182   -1.93450651883448
H          -0.40160793396327    0.07778946758217   -3.36581731950555
O          -2.19588759716287   -0.19345786401107   -0.34507226535340
H          -1.57426773863560    0.35010424981158    0.20766790123876
H          -1.81316838625739   -0.16828910773908   -1.24058759798644
O          -1.60076379498062   -2.49410667550339    0.40365574451953
H          -0.80570658848481   -2.62288625875070   -0.27338471723508
H          -1.13482156048833   -2.33631105896495    1.30084297172207
H          -1.98521303460963   -1.53570548845410    0.12242056056814
N           0.84124610021780    3.61187257730715    0.34996435545539
H           0.72659783092354    4.61772263247582    0.35618140003166
H          -0.01478605063442    3.17547018192778    0.67650767200697
H           0.98143794073835    3.29902868050306   -0.60399094267174
