    26
        -50.46277971  Gyration_radius:  2.44222755074 Dipole_moment: 2.175
 S          -0.21125389058979   -0.05211554903073    1.30305335300001
O           0.62236472050106   -1.08298476315618    0.69971073117580
O           0.48295645438113    1.22886375227023    1.35032624425290
O          -1.48718276784672    0.05920838101846    0.59488187507781
O          -0.56205064142572   -0.48127059537586    2.75342609243657
H           0.33643332673868   -0.55915525859163    3.16234829405018
O           1.24843827560717   -0.55735295534469   -1.76343124143151
H           1.08218379566373   -0.87836850008070   -0.83782937205542
H           1.37995817272097    0.40336574061325   -1.66949579625843
O           1.01226839020271    2.06438522663536   -1.02576356894033
H           1.54110894117642    2.86127083164915   -0.96477846039350
H           0.82968245680268    1.78060307560832   -0.08585149991810
O          -2.21228451405468   -1.96677108332129   -0.86014649668701
H          -1.91253509057035   -1.30632262130520   -0.18464324164094
H          -3.17084396793777   -1.97111834405520   -0.82262681393806
O          -1.58299823824296    1.51421329345645   -1.60066102606879
H          -1.70051357799796    1.10900634172210   -0.71072680930808
H          -0.71352515341642    1.95253421571890   -1.55092548056825
O          -1.04956980217166   -0.66982101855351   -2.71943467969683
H          -1.53592718688986   -1.31141112254760   -2.08797046507293
H          -1.34820061747432    0.28325262275948   -2.38866618365037
H          -0.02514627089676   -0.70627402236288   -2.41131046631671
N           2.02038846741576   -0.47506395931645    3.09326084635599
H           2.81738239074391   -0.66690062185251    3.68734204079246
H           2.06606034368756    0.48644842565065    2.77555179425854
H           2.07280598387041   -1.05822150221065    2.26436034054375
