    26
        -50.45651474  Gyration_radius:  2.52438493996 Dipole_moment: 3.993
 S           0.63880485769164    1.26958952216210    0.67992112752400
O           1.34155737675447   -0.03120707033251    0.63802950442075
O          -0.64862077112485    1.14202326834681   -0.01643523812314
O           0.47308031509336    1.73962705065725    2.03435035511943
O           1.50364347185492    2.27671858310385   -0.09756991002054
H           1.79579665922482    1.74484300209262   -0.92261775744787
O          -0.15092080791186    0.00721341752521    3.86131293976583
H           0.00750814872471    0.75962121390947    3.23270098725979
H           0.54339379188942    0.06537369547043    4.52040324545596
O          -1.59321989804204   -1.93563074638833   -1.93958407635540
H          -2.36043467768383   -2.14609625306626   -2.47382806875734
H          -1.25290731554601   -1.07435152924903   -2.25789658538644
O          -0.80755858992613    0.59554493141210   -2.54524700899810
H          -0.72183940247090    0.83761449762471   -1.58501339102360
H          -1.42510916116219    1.22974797447379   -2.91343865941945
O          -1.93751575703204   -1.07550614072035    0.58152436917891
H          -1.60340501179049   -0.16370859088283    0.40597444304795
H          -1.86537963027900   -1.53656888525074   -0.28433763962413
O           0.03994587748380   -1.67331072153652    1.95844436088886
H          -0.07835507245456   -1.14152235218911    2.82352895805458
H          -0.87956027587035   -1.54948341211011    1.41785407143245
H           0.68654595032154   -1.05974304287603    1.39149401410693
N           2.06664665148514    0.65415033309728   -2.00065713175293
H           2.88545609585195    0.64104431802588   -2.59312835275334
H           1.23470658317866    0.54241188577144   -2.57122454052170
H           2.10774059174290   -0.11839493908279   -1.34455999608137
