    26
        -50.46347783  Gyration_radius:  2.43818064049 Dipole_moment: 5.951
 S           1.08219945756036    0.80068299041766    0.16828546693831
O          -0.07178305906546    0.98653287654721    1.05830636426527
O           1.29792284821645   -0.59990282539706   -0.13497383964145
O           0.94960397263306    1.61303524587607   -1.02958145728747
O           2.33531707356062    1.33187516630212    0.94210002710855
H           2.28942871218995    0.91440327192717    1.82072187607192
O          -2.07786545371215   -0.50864625744722   -2.29849369983953
H          -1.19070891975635   -0.52293915217245   -2.72827123151223
H          -1.96814926790196    0.74882589680161   -1.52930963824070
O           1.27988901607389    0.22662374276152    3.16033753844264
H           0.57481613790511    0.44145107291238    2.51135452249454
H           1.11125159447171    0.75931218272602    3.94020899193938
O           0.53238595556781   -0.35466443311594   -2.85392985871829
H           0.79811416262008    0.43761477800587   -2.35545101792740
H           0.95585476067765   -1.07981876629374   -2.38459131702455
O           0.78852809664242   -2.37808337587148    1.96460203293188
H           1.15044121326650   -1.92905850420033    1.18757565837416
H           0.99765959880412   -1.79851287912225    2.70331549313066
O          -1.20394506380808   -1.64094109469818   -0.05951916328018
H          -1.99930333141052   -1.14947743465303   -1.56638527799654
H          -0.31161075489795   -1.25892678002548   -0.13193049564399
H          -1.13133724051488   -2.25747194759740    0.67607928366387
N          -1.66955831460361    1.62133959379510   -0.92057506682225
H          -2.35843928986595    2.36591725604716   -0.92079144463427
H          -0.73498152406396    1.93166448503574   -1.26015765872925
H          -1.42573035055198    1.29916490129322    0.04107392182646
