    26
        -50.46062694  Gyration_radius:  2.58246984645 Dipole_moment: 4.394
 S           0.36278439903224    0.67592767518377   -0.35022254232846
O          -0.10593898081674    2.03799159426254   -0.43736347175907
O           1.57483097599713    0.46083956429789   -1.28231999020083
O           0.79205983557590    0.32335602055883    0.99729416493240
O          -0.69471227035095   -0.27786094505293   -0.78541609073946
O           0.89113995830469   -2.27127484004206   -0.00890998615370
H           0.18633085035966   -1.68933839097114   -0.34573392593327
H           1.40996615750211   -1.68808176847297    0.55548160147367
O           1.72250483996014   -2.80964601771297   -2.53820635646150
H           1.45655180370630   -2.77115823708640   -1.59585749067747
H           2.66917104839777   -2.65952360887825   -2.55693518604556
O           0.29392017357136    1.97969434428601    2.99789082914729
H           0.56478637568854    1.35074832035310    2.29151911658068
H           1.01149673415195    2.61041983425868    3.07231366888929
O           0.42596258567243   -0.59255353321096   -3.29248856343146
H          -0.38590553039406   -0.63806798038234   -2.77138184692085
H           1.21123522137458    0.15554556294614   -2.17688313235598
H           0.85336543866688   -1.47735786307245   -3.20716816176538
O          -1.83387238282707    2.47153778822851    1.47926655270734
H          -2.07916862581701    1.03469306454299    1.50740479086549
H          -1.17172797603050    2.53835379856974    2.20214581968041
H          -1.28176982882468    2.50571832858222    0.66031572437547
N          -2.01922686134264   -0.07736132409097    1.43634930981524
H          -2.91772493540126   -0.53707028521589    1.54608090522244
H          -1.34675192197876   -0.40121654523579    2.12958036112123
H          -1.58930710417594   -0.25431455664567    0.47324387996346
