    26
        -50.46154427  Gyration_radius:  2.43315960647 Dipole_moment: 1.338
 S          -1.89682116011493   -0.31276395688481    0.93978796921654
O          -2.53521395352907   -0.11236743635896   -0.34393901590827
O          -1.27341158755932   -1.63023833472906    1.03718122958735
O          -0.96920372235161    0.74494329221217    1.29590339353578
O          -3.04122306351874   -0.27043399481525    2.02775573197468
H          -3.72858529792651   -0.80766491124691    1.64749324727917
O           1.63478549535835    0.63454376946176    1.89612440550436
H           0.68395449007864    0.85242433789499    1.92423892045664
H           2.01439556261565    1.19621065470431    1.15931573523917
O           0.97709024907516   -0.72522782856865   -1.62627187870726
H           0.21088054596937   -1.28909096163915   -1.88794164220774
H           0.59240860435299    0.17458916234004   -1.53505855584367
O          -0.40054233882121    1.53987741804426   -1.15140855756612
H          -1.23282778209155    1.40945692236338   -1.61510412393873
H          -0.62191066359763    1.37112533258057   -0.21136349818988
O          -1.33339808377599   -2.01774393912457   -1.76082705199916
H          -1.87386282995284   -1.30753553083620   -1.35932972377655
H          -1.29258589350878   -2.70189092586807   -1.08733968023044
O           1.23783611292080   -1.52290108003742    0.74194265167341
H           1.24582641606641   -1.22460498528398   -0.26879738292595
H           1.51261024636479   -0.63968399169107    1.30743117694355
H           0.24740010500928   -1.66165695123507    0.94421966970883
N           2.42693570601986    1.95917311127850   -0.27459514814480
H           1.53455958654458    2.18604124690460   -0.70190969205234
H           2.91949039653729    1.34153414121750   -0.90829784794191
H           2.96141285979823    2.81388543933238   -0.18921032167033
