    26
        -50.46347784  Gyration_radius:  2.43820209543 Dipole_moment: 5.955
 S           0.10419165184626    1.31892745364376    0.29954494602740
O           0.07217338139744    0.92055414587502   -1.11419835272666
O          -0.77765545133401    0.49596686085473    1.10278084593277
O           1.46678843669623    1.32803290559710    0.80506150352467
O          -0.41415218599656    2.79508006358317    0.36099848315474
H          -1.23801511134672    2.79904306260879   -0.15810747051836
O           1.33472224348568   -0.80948933470398    2.47399988359731
H           1.49986032971136    0.04043875706760    2.02995572402000
H           0.38769608214595   -0.80597008783543    2.64262094528504
O           1.75141590146963   -2.55756896994265    0.49530952126358
H           1.71135032524558   -2.08645432825756    1.36042911736727
H           2.13537859334913   -1.43626782698124   -0.38749533059266
O          -2.21792050216957    2.10916663914875   -1.51889563416027
H          -2.26596075539623    2.58202816481803   -2.35223195099026
H          -1.42838211777704    1.52718386838472   -1.56722424448432
O          -3.17076597690426   -0.26234486975217   -0.13400848908239
H          -2.49299429289022    0.00990544584174    0.50071863348313
H          -3.28188629164746    0.49548326829754   -0.71596838948567
O          -0.73108910272591   -1.89247355900906   -0.17808129117344
H           0.81639624450535   -2.65398481963508    0.23201717549109
H          -0.71212783083741   -1.04930992913519    0.30785802510355
H          -1.64840122078954   -1.97685571801129   -0.45709675747700
N           2.28125517127983   -0.47579283191800   -0.91418681427677
H           1.37609974847074   -0.17923908717073   -1.33958317159481
H           3.04090920830141   -0.49733883356921   -1.58605240476120
H           2.40111348104212    0.26127953997408   -0.18816449281123
