    26
        -50.46154357  Gyration_radius:  2.43286085189 Dipole_moment: 1.316
 S          -0.13347002786017   -0.26633041975510    2.11925732657314
O          -1.52334602411869   -0.02091607824554    1.74233522766694
O           0.23634221728042   -1.65434755414605    1.94008346408184
O           0.76985731180899    0.66196233854612    1.46483332892367
O          -0.02253238073567    0.03851450842751    3.66515150449353
H          -0.45219278178906   -0.70818714993859    4.06976007605971
O          -1.70152083017457   -2.44175057799596    0.29515991074713
H          -2.43111189342876   -1.94461530634003    0.67446425596838
H          -0.95846005490582   -2.30321016367507    0.91684728773629
O           1.65808080644073   -0.97863782838873   -0.39647906586712
H           1.66778695576800   -1.82708061926923    0.05602336242001
H           1.45259587389191   -0.33251545186888    0.31164860793300
O          -0.72453245925951   -0.93103583832592   -1.65156862254290
H          -1.16701301097312   -1.63090589074578   -1.11494306095697
H           0.20797299539743   -0.94495369549427   -1.34133151237550
O           0.28730239792756    2.53852227924224   -0.37890823625467
H           0.84542470189196    2.19603903898252   -1.13658833000503
H           0.62236724903748    2.08302511528562    0.41642542631047
O          -1.71507209854839    1.08528441567631   -0.52601119205642
H          -1.34913204836942    0.28315885904211   -1.10308925152395
H          -1.74098920454653    0.70828438157780    0.42168391248817
H          -0.91588523639721    1.81825726599056   -0.50849942978637
N           1.64489855380737    1.31411873461312   -2.31506393661434
H           2.01709293696190    0.51195310217166   -1.81669719531712
H           2.41303367872649    1.78052217669245   -2.77967545247263
H           1.01250237215942    0.96484434794204   -3.02481838561194
