    26
        -50.45760685  Gyration_radius:  2.49506957473 Dipole_moment: 2.746
 S           0.43395112366485    0.82478103447021   -1.07440941999332
O          -0.46260856292376    1.43817131322733   -0.07904800529425
O           1.70005526530195    0.46436030036030   -0.46626270990033
O          -0.21530943733436   -0.31192518074124   -1.71624749630313
O           0.68134334765183    1.88197252501080   -2.17934419159300
H           1.13764248413587    2.60062924799822   -1.66318268403276
O           1.19058471544440   -1.48229926770969    1.27349934811338
H           1.47108345798787   -0.72411215837413    0.71913698164598
H           0.92273750771065   -2.16520393032204    0.63317508856576
O          -0.90001179131786   -0.98795260088393    2.70650598520004
H          -0.06762077387610   -1.22226168614707    2.19215386744102
H          -0.62060301758563   -0.40941468450926    3.41765569133809
O           0.26932182145936   -2.80166385413389   -0.93893933279307
H           0.18944992112465   -1.89374673338337   -1.30556844958420
H           0.90390128375981   -3.25820076760838   -1.49278901840390
O          -2.40469197518706   -1.57704221964328   -0.94889921717362
H          -1.95694761046510   -2.39941236417900   -0.71708227384676
H          -1.73765118452110   -1.07024228008432   -1.46012229201884
O          -2.29784612355336    0.12780566859320    0.92638349359019
H          -2.48006811390252   -0.59675994560206    0.21509305637260
H          -1.79975227026508   -0.33773267779796    1.70964110817029
H          -1.55796941479572    0.75030321576947    0.48144117662482
N           1.82496961347056    3.28428162171661   -0.31194261535047
H           2.54234852079515    3.98718784390814   -0.18699291612287
H           2.18893787051405    2.37854865852228   -0.02944183791590
H           1.04475337265717    3.49992891156534    0.29558667327864
