    26
        -50.45651487  Gyration_radius:  2.52390536817 Dipole_moment: 3.987
 S          -1.18941535186684    0.78757894170501   -0.66834464653376
O          -0.68486758131735    1.13071600720922    0.67906593775845
O          -0.39249758010137   -0.32089786635989   -1.21129886903652
O          -2.59814366759070    0.47488081436166   -0.64358178546906
O          -0.96528834862178    2.01905666449164   -1.56271447057762
H          -0.02349709754108    2.32715819608228   -1.30332402833930
O          -3.50334325255447   -0.93056770908996    1.33959632707456
H          -4.18977299683673   -0.39599329506560    1.74325787527946
H          -3.25009977792218   -0.46041175140321    0.50220783936972
O           0.07816892792209   -2.22017464760421    0.55151587299948
H          -0.16223205605155   -1.63870497241810   -0.20871109885355
H           1.04625392372450   -2.08968222803771    0.66621744612776
O           2.14283000962147   -0.09730545723878   -1.70244220263197
H           2.27281617721280   -0.44893505503791   -2.58482151149976
H           1.16376759181449   -0.14947200106055   -1.53910134084211
O           2.68938479218542   -1.59213698994251    0.50158248244289
H           3.33069332574211   -2.26133050795149    0.25822830917446
H           2.59885845324962   -0.99241760220874   -0.26718932806882
O          -1.10897724375370   -0.78365790364368    2.19193044863038
H          -0.58529993842099   -1.51121189742740    1.60073577006272
H          -0.89809913693168    0.09862915227514    1.65017319319310
H          -2.10095582887090   -0.93834504770526    1.99860209606367
N           1.37671093125344    2.52332190459133   -0.65107334419221
H           2.01286388100435    1.82494018575517   -1.02209769076526
H           1.08963394792402    2.23056885447908    0.27676750890715
H           1.85050788673447    3.41439422125661   -0.59518081027141
