    26
        -50.46154427  Gyration_radius:  2.43344713439 Dipole_moment: 1.347
 S          -2.05580641432503    0.36512659325465    0.46939924548948
O          -2.14267936189190   -0.34941230175103   -0.80167830670573
O          -1.93259035555669   -0.54266265181128    1.59038728934053
O          -1.02704841907888    1.38822958713600    0.43808513513218
O          -3.42460333502046    1.13154175360319    0.65396935309286
H          -4.03417383304548    0.44145396086729    0.89473644676847
O           0.81143065671275    0.06575233922326    1.78540413491581
H           0.28937159501733   -0.44071060280183    2.41445073190213
H           0.15943568851073    0.66034039714877    1.35810040588549
O           1.18264099434815   -1.62999948921961   -0.27370909543121
H           0.44661732383693   -2.25206403946233   -0.06162284839854
H           1.20790789544369   -1.01776377268527    0.49472979002679
O           0.75914585029269    1.99033860217236   -1.45969973225283
H           0.07407876802273    2.07344991196059   -0.76974822413762
H           1.61302784938270    1.81559079907200   -0.96690877845259
O          -1.14816143980673   -2.74481337775058    0.31855765413938
H          -1.68843460591328   -2.66178850323208   -0.47172516391884
H          -1.46020792455871   -2.02837267189567    0.90771131921802
O           0.04354589613266   -0.30151047848456   -2.07613916001257
H          -0.89543765181529   -0.31606413379367   -1.67739329480081
H           0.38666619979272    0.71704309541546   -1.93430145966255
H           0.60812894182486   -0.88572816869842   -1.40448431308030
N           2.87682391435218    1.24005309666203   -0.02917833753337
H           3.29409018381946    0.40410585227246   -0.41992865913803
H           2.43744687274052    0.98040110599949    0.84828228889147
H           3.61878471078271    1.89746307679122    0.17270359871544
