    26
        -50.45651486  Gyration_radius:  2.52402104937 Dipole_moment: 3.987
 S          -0.28883211836977   -1.29610841328497   -0.84774969611790
O          -0.36225287121338    0.11316363782874   -1.25658578308345
O           0.15599432705051   -1.36793538344829    0.56112558498954
O          -1.54559385908556   -1.97829471140744   -1.04268632049596
O           0.79208552594553   -1.98408667212147   -1.69918545567978
H           1.66538265550516   -1.63104054019632   -1.29670115754788
O          -3.37481179257423   -1.71560660637189    0.77750580892573
H          -2.77965081302915   -1.81745774746266   -0.01100110386431
H          -3.58132010122091   -2.60630946572384    1.06715935952080
O          -1.46646613108424    1.66437805860859    0.56294460629137
H          -0.67373879941393    2.18323993517069    0.82706799107667
H          -1.17437309532180    1.15000324606798   -0.22697021292796
O           0.89502668247423    2.89392543538087    0.91967838273465
H           1.31145579418512    2.46415298197434    0.14460278491049
H           0.96037158600239    3.83996603896009    0.78166918832966
O           1.72761667885191    1.64412044255847   -1.34672271970854
H           1.69505315065619    2.08573388590736   -2.19705134754207
H           0.94610871626992    1.03003541188429   -1.33804744478332
O          -1.59515417358448   -0.36060961742194    1.99358813069487
H          -0.79477132847962   -0.83130310570841    1.48919080128248
H          -1.61548251696415    0.58946192385880    1.49362568016149
H          -2.41254346671629   -0.86805262120077    1.64794210754892
N           2.76022206246862   -0.93690142478469   -0.43436100087557
H           3.69269539513716   -1.30555747205650   -0.30697497527153
H           2.24617912270907   -0.99996716459839    0.43788372111523
H           2.81679934978822    0.04104993758206   -0.69994690967348
