    26
        -50.46154417  Gyration_radius:  2.43343356585 Dipole_moment: 1.344
 S          -0.73613637400837   -0.01974024632742    2.00941748091393
O          -1.27722144020959   -1.34079348738346    1.76875067670745
O           0.71151671380960   -0.05211997958913    2.20185666936065
O          -1.12005828315175    0.95427331684388    1.00446323611376
O          -1.36340520396425    0.48763253107363    3.36740647531152
H          -1.28861213001904   -0.26740689567810    3.94184550475126
O          -1.53666173355510   -0.73903367836582   -0.97121076893111
H          -1.88523868291117   -1.51186315910937   -0.51736632267168
H          -1.49292414987056   -0.05189483740960   -0.27323695797734
O           1.10229991665916   -1.23545280685208   -1.17822740825679
H           1.15838463654522   -1.92544363626111   -0.47502658086400
H           0.13932384145659   -1.05872434789609   -1.26428520186246
O           0.94304066935010   -2.63072113952853    1.06985218558351
H           0.06271308376254   -2.29743185073931    1.33765204641126
H           1.55635572809006   -2.21509249396428    1.68174201012605
O           0.38752010565558    2.48413042037014   -0.58978205535503
H           0.10175576369718    2.14686459924637   -1.48817343364172
H          -0.30707974519109    2.19144039944345    0.02997062198706
O           1.96586558356299    0.71873143022344    0.14316332004805
H           1.38208567007743    1.56703701807083   -0.19550786735782
H           1.55434135783727    0.46336138942579    1.04113374106067
H           1.69687899919887   -0.07996587141339   -0.49010774995589
N          -0.35323657940933    1.27035309523746   -2.84180741029571
H          -0.78820673802403    1.79579514845749   -3.58890327771178
H          -1.03115331720950    0.60203339015311   -2.48942388328700
H           0.41785228774976    0.74403167202820   -3.23419507023402
