    26
        -50.46913954  Gyration_radius:  2.44642164849 Dipole_moment: 5.936
 S           0.20159585430040    1.00893181053299    0.72795053478592
O           0.65600868123540   -0.38843796450810    0.83526013827205
O          -0.78409353374755    1.13554657846904   -0.34265472463637
O          -0.46973966897534    1.38173230002991    2.05824156230204
O           1.34652066477219    1.87684749409473    0.50797870088454
H           2.03357301812921    1.20081745762992   -0.71128708111876
O           3.15067191041535   -1.15965312091696    0.51378563220836
H           3.66256468069353   -0.81317215326637    1.24676116995523
H           2.20721961406953   -0.99048120239275    0.74380894965979
O           0.07203153813950   -0.51395840290798   -2.16314177478327
H          -0.37202790163818    0.15577446258081   -1.59090309129990
H          -0.21183529695959   -1.35752574302437   -1.79375453161320
O          -3.44395705007818    1.31323115001435   -0.13663048260847
H          -2.48130560433091    1.41226976836423   -0.27503017946848
H          -3.77810689362520    0.86857021813602   -0.91778874171913
O          -1.21198249196968   -2.03062874648656    0.11772923920425
H          -0.46802257175835   -1.43580647133593    0.37912261841553
H          -1.05316702020150   -2.86614706325498    0.56043304381755
O          -2.45959158576537   -0.22277730527849    1.84874826082844
H          -3.03697085867327    0.34133338302152    1.29391433641549
H          -2.15454009200404   -0.93258085531466    1.25349799531750
H          -1.27436580873910    0.76735768922020    2.10129064982818
N           2.40635689199987    0.49719077047302   -1.42525034837312
H           2.93031699961392   -0.20895499561618   -0.85336237179382
H           2.98156373274267    0.93754429095196   -2.13541016824397
H           1.55128279226736    0.02297665119581   -1.84330934633538
