    26
        -50.46913953  Gyration_radius:  2.44650244092 Dipole_moment: 5.934
 S           0.43690333101933   -0.15848541525974   -1.17119515903748
O           1.07850187431615   -0.30816763445916    0.14658295364059
O          -0.88764688911186    0.43855315350149   -1.01998456020805
O           1.30925011492497    0.79031114945421   -2.00670213145555
O           0.36953587308317   -1.45296506680890   -1.82879853513437
H          -0.31164170205622   -2.33127578023892   -0.74265905104898
O          -1.78015921219114   -0.60015441592367    1.19192041684144
H          -1.59989486205229   -0.13581847265261    0.34040123963772
H          -1.30203851207173   -0.07763188958196    1.84535427994992
O           1.82659906992480   -2.61205678870909    1.17321844156983
H           2.55740377937932   -2.94424389716628    0.64888719025210
H           1.67614919544723   -1.68782672428841    0.86533329294009
O           0.28183098146490    1.53415088289998    1.78155570686641
H           0.59381115554244    0.80389160653620    1.19423166604809
H           0.96939713879307    1.66030176270174    2.43782597206244
O          -1.62676159085732    2.96952363783995   -1.46353249204740
H          -1.46295443984061    2.00615517577490   -1.43615048283346
H          -2.31559171306842    3.13824954725461   -0.81801253750640
O           0.91997570263586    2.88679632270502   -0.58166754322914
H           1.25723467005318    1.66880819802600   -1.50432139122717
H           0.07075653690826    3.17067645382363   -0.97868192090933
H           0.68454573379040    2.55389350442917    0.30429350668172
N          -0.63341018663089   -2.76340570504029    0.18126797682338
H          -1.20832583883553   -3.58738349166964    0.04120982691805
H          -1.15746644676800   -1.99535102888375    0.69718965716475
H           0.25399625626537   -2.96654508442940    0.70243367703911
