    26
        -50.45440518  Gyration_radius:  2.44951303041 Dipole_moment: 2.519
 S          -1.42356598756901   -0.00918342459661    0.57039390758996
O          -0.97571964924916    1.39655764973145    0.12640458131734
O          -2.26342780732848   -0.47869333576058   -0.59931861024826
O          -0.24482893010667   -0.84595657586910    0.68777839999295
O          -2.19822949592359    0.05575224356328    1.77066853540448
O           2.25331381323898   -0.03831871532536    0.48050516947592
H           1.35275772484876   -0.42551629383213    0.54305172616049
H           2.81775073257779   -0.59785823342799    1.01718839402718
O          -0.26288301408024   -2.72707528600279   -1.26619702291502
H          -1.17740511858296   -2.73504673917995   -1.55561191867151
H          -0.24657410980543   -2.17785285458241   -0.46428205191623
O          -0.32172237241498    0.73404926123975    3.54249141767330
H          -1.03775698637204    0.37473548083165    2.98139134145427
H          -0.75488943195353    1.18529587763246    4.27023934648168
O          -1.12775050043426    0.59609277799147   -2.51687218558948
H          -0.18874002466357    0.16709835541108   -2.53344936486872
H          -1.82287192561038   -0.05917113313996   -1.48359960107648
H          -1.01544615247910    1.47413614843555   -2.13981812106092
O           0.93177232248265    2.03991431398171    1.59518323587014
H           1.61309101783570    1.43684719197256    1.23180285856126
H          -0.18786661252785    1.74850885698386    0.72972719078149
H           0.61440190608447    1.62936692537657    2.43234059504313
N           1.20398185404446   -0.52599574004188   -2.40264918687168
H           1.78612352946962   -0.57866720673094   -3.22810351115612
H           0.91229205837339   -1.47193705007432   -2.15286875050628
H           1.76419317014014   -0.16708252459685   -1.63639638494899
