    26
        -50.45422539  Gyration_radius:  2.45336873259 Dipole_moment: 3.540
 S           0.61563001456414    1.19380712903824    1.24479113572510
O           1.45275745234565    1.82256296258679    0.24939917419797
O          -0.79973411386367    1.50165119440093    1.06247508392276
O           0.82895274871601   -0.23746085757477    1.36088869823148
O           1.03546662764920    1.80711380717333    2.64446872651219
H           1.13131990364070    2.73303075037660    2.44725468847597
O           1.13305781339055   -2.89277875572961    0.90235613243555
H           1.43975104812016   -2.80213042784588   -0.00483308770286
H           1.23832126919365   -2.01224382074317    1.29536721049768
O          -0.76621514559678   -0.36288170390939   -2.13369763361400
H           0.13888569983908   -0.65208710910382   -1.87683819129159
H          -0.69377999534625    0.63594317876591   -2.20807492963788
O          -1.46686766917215   -2.54707612429676    1.27341022160800
H          -0.53262669119177   -2.80368247769906    1.07108075854946
H          -1.48983411070797   -2.37397407439295    2.21642857550800
O           1.67267465569659   -0.69747340151716   -1.10065285270501
H           2.19257511810356    0.06107896536052   -1.37648340873400
H           1.42164390206619   -0.49598786343486   -0.17528143055874
O          -2.03758953020754   -0.41141189682677   -0.01506735442426
H          -1.53270587565283   -0.45977005154339   -0.99082118862869
H          -1.83084670363846   -1.27574376177250    0.49262522463080
H          -1.58907315102513    0.36897705750934    0.47570072033282
N          -0.43921745535409    2.22862259624974   -1.83330860309663
H          -1.25953561398914    2.58706282482591   -1.35950772129447
H          -0.16200108069694    2.90585084442853   -2.53271145355537
H           0.29899087311403    2.17900102566443   -1.12896848538381
