    26
        -50.45422533  Gyration_radius:  2.45339136714 Dipole_moment: 3.541
 S           1.47642169728992    1.06889699846855    0.17571025570196
O           1.65344618456474    1.08531184861921   -1.25790573151011
O           0.34259342906156    1.87961205815934    0.60990484140560
O           1.40799827674550   -0.26869732653944    0.73572895674395
O           2.77270318825559    1.73228740021517    0.80103801207197
H           2.92221423579196    2.47856977544569    0.22998554378617
O           0.80413006600750   -2.85112920950807    1.30098518400758
H           0.51276525914224   -3.08151523726715    0.41369464905269
H           1.30790198621836   -2.02868629502649    1.19753443132135
O           0.47643918113753   -1.52560785756360   -1.39388059134360
H           0.87061570054246   -1.11716690666156   -2.16821673947436
H           0.88364184888858   -1.05460379861614   -0.63741629700962
O          -1.95194924152956   -0.45038163095342   -1.12130703418190
H          -1.16180116866256   -1.02223553395927   -1.25354809985515
H          -1.72989332635560    0.39472020152506   -1.61624309445042
O          -0.89991448956902   -1.41250101926688    2.73047973535539
H          -0.35726547551051   -2.06157436484645    2.21685248326116
H          -0.31252420128939   -1.05514339588839    3.39913263004801
O          -1.66415373911800    0.45686426369299    1.15935033202844
H          -1.38188178788431   -0.29274533373199    1.79651991524890
H          -0.85812223291129    1.07071069660651    1.00256062343053
H          -1.87372316989312    0.00871197319519    0.17717606505933
N          -0.97168423536284    1.78719606208803   -2.09358983999126
H          -1.24140463789604    2.53630103891876   -1.46748752779637
H          -1.03691913119991    2.13466874353166   -3.04210144267207
H           0.01036577353941    1.58813683936354   -1.89495724023760
