    26
        -50.45422535  Gyration_radius:  2.45343662288 Dipole_moment: 3.540
 S           0.77625502575758    1.54376993797652    0.60633709505158
O           1.93604173603103    0.80451493348869    1.04824747510752
O           0.71349314395955    1.67237416695670   -0.84650176879664
O          -0.47365179494263    1.03439557461020    1.14091815319472
O           0.92593287210348    3.01174467019825    1.18440525957331
H           1.84547734914686    3.20373924046069    1.03290497379219
O           0.26086769733332   -1.47884599129288    1.49709983111407
H           1.18161595491393   -1.47676401626568    1.76914053862398
H           0.02858628034911   -0.53016411801063    1.42003338385060
O          -2.57207334711330   -0.50817183671601    1.89594892097092
H          -2.07246359456925   -1.32698848408267    1.96803847547502
H          -1.90588676482340    0.19686592074736    1.89464923500636
O          -3.14023622481749    0.27476053682721   -0.57018592435085
H          -3.02798201408217   -0.12329782181705    0.32893608280609
H          -3.33946292212787    1.20088281445112   -0.42076223847316
O           0.24325480485288   -1.98733551886165   -1.12362554988204
H           0.15006523626048   -1.98082400823598   -0.14376272669899
H           1.17600865330288   -1.65177181466933   -1.28447080136914
O          -0.93786074325455    0.05663587132978   -1.85445549411451
H          -1.83101444717776    0.13527694712061   -1.36092065659208
H          -0.29904326299700    0.76857652936749   -1.48570530276843
H          -0.47936530020157   -0.90452882434939   -1.57937975390126
N           2.52192233339135   -0.68756648860621   -1.29951906206359
H           2.42954647585422   -0.15848524452628   -0.43056846843740
H           2.43299681381333   -0.01511410917623   -2.05171412321844
H           3.45697602903660   -1.07367887691499   -1.33508755389174
