    26
        -50.45422530  Gyration_radius:  2.4532632244 Dipole_moment: 3.544
 S           0.45086885778192    1.47842968497435    0.98115055530935
O           1.82136244673580    1.02818891926684    1.05701503421036
O           0.09603494833547    1.97366801563316   -0.34557497784067
O          -0.50903628492352    0.49349107456332    1.44581121480911
O           0.32084717525481    2.70795002670905    1.97252982851409
H           1.11654201228389    3.20072126978332    1.80097151970803
O           0.89726568696919   -1.68269197586334    0.92708070714728
H           0.41932904293426   -0.86346677053582    1.17280145008646
H           1.82010719886857   -1.47921473284080    1.09668414957845
O           0.53696314874300   -1.43883147506185   -1.70699345611979
H           0.62402945750539   -1.72795110937740   -0.77017144802428
H           1.30757670291262   -0.80937583885416   -1.84304342611343
O          -3.15474623781090   -0.53049373875034   -0.15136924528612
H          -2.78378994086516   -1.10687621293152    0.56251630798909
H          -3.55213223320941    0.21700584439567    0.29924548035949
O          -1.96885960376773   -1.75039575255405    1.87929158838585
H          -1.51718932659012   -0.90620886113225    2.03483736545666
H          -1.27158960123257   -2.36966696872522    1.64352025375433
O          -1.24048625390813    0.27696393584909   -1.64496349723236
H          -0.74954232513414    1.01864339764891   -1.13526133556884
H          -0.50919822654985   -0.54009940079298   -1.72966641013966
H          -2.01920848843993   -0.05225758556619   -1.06812397248298
N           2.33585155286942    0.47845880084397   -1.68442305184789
H           1.94319729195396    1.27180139783664   -2.17668983815144
H           3.31621005889763    0.41408102788308   -1.92815617031994
H           2.26959295040045    0.69812703759108   -0.68901864617664
