    26
        -50.45422533  Gyration_radius:  2.45345539898 Dipole_moment: 3.540
 S           1.75638519764988    0.51719803884222    0.03170093492547
O           0.98884879929859    1.72703857908881   -0.24867470467644
O           1.83273711841061    0.22353171963603    1.44404888353434
O           1.28390372360738   -0.59885795318655   -0.76743487790622
O           3.23821882653947    0.79872945066839   -0.45455047481729
H           3.58954193164048    1.33864149943104    0.24578012037514
O          -0.15323886266513   -1.81364545440670    1.08782019881886
H           0.43705496814445   -1.38531587632020    0.43360940821067
H           0.30229216654706   -1.70482114261140    1.92593422770427
O          -0.10570029666239   -2.68334534899558   -1.80501446926744
H           0.63490949404708   -2.11173059390094   -1.54876231753036
H          -0.51568417687754   -2.95107237608283   -0.97706822202866
O          -1.13518990647395   -0.52700217645426   -2.94863962824040
H          -0.87467541547436   -1.40023720763775   -2.56248685463062
H          -0.41986956452558   -0.28024560977437   -3.53787805181505
O          -2.06086545672008    0.05254886394188    1.01072609400494
H          -1.51709082234381   -0.76746089605424    1.03749656954020
H          -1.60335192017173    0.67242314371152    1.65488173576035
O          -1.33576815494988    1.18850752056753   -1.06071831032507
H          -0.38370014808923    1.45503144859323   -0.78955639104387
H          -1.27747798285437    0.51016205684397   -1.82488475308809
H          -1.74772328223710    0.67520747350119   -0.17955593194657
N          -0.45821729855376    1.61910301844501    2.38559431727734
H           0.41234056052557    1.13597810676944    2.15709274871160
H          -0.46696947607388    1.79778757562327    3.38191511167881
H          -0.42071001174207    2.51184612977150    1.90862463677309
