    26
        -50.46913956  Gyration_radius:  2.44648019121 Dipole_moment: 5.936
 S          -0.47225250398070    1.15217803448053    0.19288247316265
O           0.97925649919831    1.02639844434209    0.08778690262170
O          -1.09608028350412   -0.18238964100903    0.21192939424401
O          -0.80903336502985    1.84066581331607    1.52394710481707
O          -1.02369727646308    1.93085563567611   -0.90353602440731
H          -0.82033421007220    0.97487908270657   -2.11185831529650
O          -2.82361308107650   -1.03160607187135   -1.58138341453407
H          -2.26188940954224   -0.80328144937893   -0.80425206574322
H          -3.62998615119172   -0.52346296063521   -1.47680721718138
O           1.30582484563547   -1.02053676708614   -1.48417737564080
H           1.35454354483055   -0.22859278649994   -0.89795718210157
H           1.13375666088518   -1.74771622284044   -0.87572942151490
O           0.48498092637686   -1.93043283786378    1.28245522221785
H          -0.05744897388715   -2.63603998074816    1.63915197082121
H          -0.13777536818434   -1.29765509174587    0.84957365140304
O           2.81098095487173    1.27427998006499    2.01968778081347
H           3.50394497229695    0.65711475109199    1.77763084270443
H           2.21640160505161    1.32774238071963    1.24556143818518
O           0.52903568471919    0.25285887299441    3.02911243276800
H          -0.34737145504326    1.26277668611630    2.21662521398632
H           0.59039832117726   -0.58230271536988    2.52913726189285
H           1.40856206378603    0.67222283723252    2.92908632111162
N          -0.72833561066631    0.11661328840682   -2.74334132114665
H           0.09873987776559   -0.43620197928275   -2.36778697594409
H          -0.60586845275906    0.36758802181911   -3.71860361966912
H          -1.60273983522940   -0.43595530469097   -2.56913503757041
