    26
        -50.45822183  Gyration_radius:  2.51230198213 Dipole_moment: 2.953
 S           0.29041493636591    1.04239714188072    0.40869496179242
O           0.96280343491417   -0.17369326101695   -0.06182154480170
O           0.07910266282300    1.97902880526186   -0.68277646462343
O          -0.95276714055334    0.70772707377073    1.09717521738729
O           1.21617044392052    1.70243040059920    1.46623407533984
H           2.03079171875179    1.93093629697361    0.93701759495073
O           0.51442791302624   -1.36656412729835    2.28480415393430
H          -0.15005386650140   -0.72356885608018    2.55328753999121
H           0.88457120562714   -0.98855732338504    1.46572239512096
O          -0.59513891936156   -3.46236232338420    1.07994473546886
H           0.02498034498193   -4.19142694626906    1.12576598274151
H          -0.22560569284211   -2.74784495402219    1.65379637060917
O          -0.68518016897254   -1.95521203173754   -1.06010169233851
H           0.03659419246290   -1.32510033871045   -0.80497077758395
H          -0.70185435238706   -2.63823498486312   -0.33251001484159
O          -2.05042723411837    1.53054237468777   -2.12463003269229
H          -1.19687405846310    1.74043694907675   -1.66785709093529
H          -2.58856169664838    2.32152425912490   -2.05511636433637
O          -2.52749853351164   -0.41996081056249   -0.53478136294839
H          -2.49436523245916    0.28593834805228   -1.26354986687563
H          -1.75917179138464   -1.21326321150409   -0.84643162796957
H          -2.03677595798817    0.02438490539502    0.23855384686870
N           2.93586357108858    2.01767870545374   -0.45840135642992
H           3.70343479341328    2.61398398631183   -0.74112573032838
H           2.11212814653977    2.25182300411204   -1.00465746454779
H           3.17299131130814    1.05695691814726   -0.67226547295445
