    26
        -50.45822187  Gyration_radius:  2.512110845 Dipole_moment: 2.949
 S           0.30296115604452   -1.08960444590856   -0.24203158990678
O          -0.60719386952116   -1.94010539386684    0.50733621659192
O          -0.41636030563402    0.01401378204057   -0.88762482110114
O           1.38960125681714   -0.57789708170237    0.58808323449188
O           0.96588558913063   -1.92985666600057   -1.36694046468174
H           0.18168669810097   -2.27138673514156   -1.88084680798739
O           1.12544095681680    3.47205544304382   -0.42665014195300
H           0.92179430338404    4.08829355774211   -1.13162541436591
H           1.54270630291818    2.68641996867081   -0.85701653257565
O           1.89632052592957    1.18093395976800   -1.53624605998407
H           2.40698172750096    0.64792020984984   -0.91802490198785
H           1.00939240704832    0.77636579873616   -1.51257041287656
O          -1.18009674193691   -1.09616969925302    2.91035605713202
H          -0.89382551047462   -1.78890985187278    3.50891038764799
H          -1.06268043987769   -1.45995657817343    1.99648477680833
O          -0.79013975948632    2.07767043918877    0.68995729536415
H          -0.79983094314392    1.32837137314889    0.04064478964199
H          -0.12650909419231    2.72774445274648    0.32522014505904
O           0.41702451179212    0.84981459294537    2.44000692387613
H          -0.17657221592951    1.51573486045810    1.71904355286670
H          -0.25267675357936    0.17381486630522    2.79388265768237
H           0.96885167546515    0.30391401974778    1.78113643889169
N          -1.44581266091011   -2.45644126167078   -2.18404390018231
H          -1.97453884618518   -3.15811334945464   -2.68684552057479
H          -1.75701151001304   -1.53941121201089   -2.47934335652775
H          -1.64539847004226   -2.53521503931289   -1.19125256136000
