    26
        -50.45892964  Gyration_radius:  2.45686243823 Dipole_moment: 2.265
 S           0.46247129919199   -1.11678249502264   -0.65445133993662
O           0.73324844745961   -1.62590842901598    0.69598025217553
O          -0.88657605790763   -0.54483070444425   -0.70962381996776
O           1.46802520057391   -0.16020303337229   -1.07590367532387
O           0.51402026437050   -2.31364600383339   -1.63289700278652
H          -0.19727486650942   -2.91095629890044   -1.26642614953323
O           2.50742988397810    1.38329755245392    0.76144846611090
H           2.16374752969459    0.87183519863655   -0.01175733287552
H           3.43414064761233    1.15221898527538    0.84569282264862
O          -0.74860256360162    3.23438400102136   -0.11209726925253
H          -1.45150279652879    3.84215685023251   -0.34594167666457
H          -0.53078215074062    2.73396698317287   -0.93668588687847
O          -1.31744362569662    1.10130992119534    1.30448449203588
H          -1.13376685173144    1.98374131148944    0.88195328726324
H          -1.30857942172783    0.45778658392623    0.55606454136339
O          -0.32486919964151    1.62261542803061   -2.18547726290957
H          -0.72172429202352    0.82919091218445   -1.78054430346665
H           0.61120809458985    1.39909256142280   -2.23395180101199
O           0.78717692842191    0.29254358837344    2.30068793431940
H           0.79703120120050   -0.58854387857532    1.75533082636070
H           1.50725196187840    0.84834577512211    1.84358401148309
H          -0.17897463265677    0.72798597754876    1.97753335252046
N          -1.39116601068290   -3.34048204987516   -0.20542186187651
H          -1.98147815904986   -4.15478543078671   -0.09186105509282
H          -1.97368976312507   -2.51834606193729   -0.31411708281244
H          -0.83932106734697   -3.20598724430642    0.63439752411825
