    26
        -50.45822183  Gyration_radius:  2.51228500133 Dipole_moment: 2.949
 S          -0.28197521093177   -0.81354840116483    0.77316152192668
O           0.15958401898805    0.58550163136411    0.77039818011710
O          -1.73270392503822   -0.90453267572951    0.75459892216484
O           0.33103164658970   -1.54725039265653   -0.33031451176276
O           0.24638178614847   -1.46238368442513    2.08122410607692
H          -0.22197788721874   -0.94214893283478    2.79233119409895
O           2.89237311336749    1.44386535066054   -1.74876682071603
H           2.94852041113267    0.79186105034010   -1.00828082185831
H           3.43818120309477    2.18884321794629   -1.49308018710828
O          -2.82074482945671   -0.71557996224299   -1.61080452629962
H          -2.49847353834569   -0.74059976590601   -0.67445448057621
H          -3.30381623668762   -1.53319892258628   -1.74558094425865
O           0.28263563089725    1.63371389126049   -1.63260904093475
H           1.26849722277181    1.66339258411641   -1.78492996597975
H           0.17697131219653    1.38268405513956   -0.67931402110253
O           2.68320495024699   -0.17892315788838    0.34828917579866
H           1.84849048792805    0.20989254272660    0.66907930370037
H           2.43231972902397   -1.06860145983873    0.07886841735424
O          -0.43448628760938   -0.53878958608545   -2.52352930041116
H          -1.43366662801369   -0.57596964543589   -2.34770102639532
H          -0.11537417561643    0.52397794300339   -2.23458057700506
H          -0.04432914541476   -1.07028729699425   -1.74765364319220
N          -1.27512543087450    0.22207545197388    3.34969201268009
H          -1.93650973650630    0.01177962980208    2.60803332046620
H          -0.83206055715231    1.10139310352192    3.11410013482756
H          -1.77694794352983    0.33283344191267    4.22182359836824
