    26
        -50.45822187  Gyration_radius:  2.51209037095 Dipole_moment: 2.947
 S          -0.59597402386374    0.07460510974741   -0.98876522015428
O           0.00620793526572    0.98030328986809   -0.00427227179847
O           0.34252379506166   -0.23968932347080   -2.05355460864996
O          -1.11059471290873   -1.12514345356355   -0.33492357818523
O          -1.82305494620624    0.80486265561225   -1.59864477320014
H          -1.41076643432198    1.59395143206432   -2.04922852986764
O          -0.44902347102430   -0.02439016932910    3.64719509559612
H          -0.43007644859061    0.71153190482865    4.26061022485957
H          -1.16054926201856    0.17869947263624    2.99224819207150
O           2.01715577033454   -2.16839504656306   -1.51462049807995
H           1.46041757233587   -1.39366013574976   -1.78130374815048
H           1.86531489412365   -2.84354606376629   -2.17884079390821
O           1.41896021563363   -0.26102883086345    1.82618990901789
H           0.81592047018870   -0.19626145608191    2.61868935200194
H           1.00341135293894    0.32002036451332    1.13858436470590
O          -2.06842091929339    0.62192829001625    1.63841873991956
H          -1.35653090047755    0.96440213545077    1.06678229417870
H          -2.37761715414252   -0.16225971578112    1.17311926098790
O           0.81335419573345   -2.37597184704794    0.73613754149074
H           1.18157684245722   -1.46200900092336    1.32268591763132
H          -0.06165562424730   -2.01753462041207    0.35847622133697
H           1.41201140899354   -2.42875909666998   -0.08217977224679
N          -0.13084390861334    2.54704497001412   -2.52721315720272
H          -0.01532155339197    3.21438068573247   -3.27955203931076
H           0.43892186500207    1.72779303623278   -2.71663550530409
H           0.21465303103726    2.95912541349666   -1.66940263773614
