    26
        -50.46460225  Gyration_radius:  2.41051347846 Dipole_moment: 2.668
 S           1.28561212887210   -0.53380265195823   -0.13618817415907
O           0.81998345736450    0.81365630942004   -0.49020773777687
O           1.28342429048597   -0.68884308051665    1.32412595891335
O           0.49086866393821   -1.55441108833250   -0.78996552190707
O           2.74278798252759   -0.67585459180713   -0.63186920988271
H           3.20561478075434    0.05291856702515   -0.12844696960994
O          -0.61386093009454    0.12267720050172   -2.61846510403330
H          -0.30654762052932   -0.78892642444576   -2.53336339304212
H          -0.04559321198907    0.59915508582920   -1.98149383227186
O          -1.42078134347358    1.43912053420897    0.76222469912335
H          -0.55148412680618    1.36959439635789    0.30339692072561
H          -2.07660925171960    1.14002385675772    0.10411809451272
O          -1.88969376504855   -2.02758685787365    0.25033435733502
H          -2.41005396118898   -1.38908844218205   -0.27325729450292
H          -1.00873981483441   -2.05961373947962   -0.18727808413957
O          -2.80514436398507    0.11599160716080   -1.18460529014533
H          -3.58157021259994    0.30910571354089   -1.71115098255417
H          -2.02541267883390    0.13707383854186   -1.80847591501934
O          -1.06666383466759   -0.62077852913074    2.15046045046806
H          -0.04728663945160   -0.70412024894997    1.94165591892607
H          -1.30029103047659    0.31075964934832    1.72585032532652
H          -1.50354223954512   -1.30893595329811    1.47865495323790
N           3.30111301782638    1.31406542928656    0.93167979876453
H           2.83665685181268    0.83145073313424    1.69305642293297
H           2.61964240814005    1.93342729805668    0.50935540917411
H           4.06757144351793    1.86294137881220    1.29985419957835
