    26
        -50.45822196  Gyration_radius:  2.51203628434 Dipole_moment: 2.948
 S           0.20757643453475    1.13607130382661    0.07235634051817
O           0.45894058771016   -0.07416625908693    0.86289369776916
O           1.30975779603345    1.40585120697452   -0.83619501642899
O          -1.07104087174330    1.03688055911777   -0.62524176446305
O           0.07554674705893    2.31946732665805    1.06896281962286
H           0.97823867639552    2.35492174559214    1.49284676166906
O          -2.42655667184434   -2.56237935191856    1.02382968649800
H          -2.43159609132630   -1.62434405811572    1.33469184323407
H          -2.42734810022425   -3.10697794043667    1.81226294133293
O          -0.22755000780877   -2.28535907715915   -0.37064562198849
H           0.16065084482502   -1.53416547887857    0.14757201732300
H          -1.06195389933018   -2.53321698410048    0.11800379371369
O           1.23046586707760    0.08810765335631   -3.08857785911480
H           1.20393335141191    0.75049103027771   -3.78181494287311
H           1.36876865050785    0.58431730056408   -2.24252112851546
O          -2.05181537104873   -0.03780229855536    1.77169951566143
H          -1.08435808257146   -0.06022399869804    1.65186712423723
H          -2.35180146873443    0.57667698287620    1.09380908818081
O          -0.97967118218964   -0.90162950584349   -2.25357082850044
H          -1.18232805569947   -0.08997982753714   -1.67394142577425
H          -0.12806998261140   -0.63258014306513   -2.73572013466056
H          -0.64939997418308   -1.65692324612323   -1.45354072331750
N           2.55472563217197    1.86051856816082    1.70446876771136
H           2.66740905108597    1.71484272629985    0.70555853142428
H           2.48026361104971    0.94624467042899    2.13293084297703
H           3.37721250949944    2.32535707542808    2.06801568368362
