    26
        -50.46302226  Gyration_radius:  2.50667753168 Dipole_moment: 2.704
 S          -1.49769419500958   -0.33772436415072   -1.35901111978626
O          -0.39332386634607    0.53532931021941   -1.75184795482047
O          -1.03158062878406   -1.65898789734230   -0.98079360992585
O          -2.38506283031664    0.28356823452798   -0.40332413112816
O          -2.35672130224322   -0.56040036718678   -2.67820810714440
H          -2.86125265550122    0.24436490785994   -2.73734925449926
O           0.13520995844184   -1.48313442244508    1.47073762268233
H          -0.41059062578043   -0.81669165006695    1.91368996269155
H          -0.34428669415887   -1.69368843194294    0.65131149361565
O           2.45445146839488   -0.67877106901581    0.42696785011960
H           1.72305238680687   -1.02510431016052    0.98842264941438
H           1.99927747972135   -1.12172086735933   -0.88105927903055
O          -1.67491037246228    0.52688194793645    2.09082357816723
H          -2.48730452324501    0.55388199761915    2.59906479233657
H          -1.95149581760863    0.47228643638267    1.14232753270871
O           0.24359731329704    2.46298052040057    2.19457182159683
H           0.78693371094602    2.22829933921416    2.94881406585220
H          -0.49509608486886    1.82547492105353    2.17601520508901
O           1.49730057885315    1.70929007791148   -0.10428496712688
H           0.77424753018573    1.47773364846972   -0.70747977095277
H           1.07583459916356    2.11942402283853    0.67578111018930
H           2.25598244340859    0.28865754200307    0.32040295337125
N           1.41992111024807   -1.32069361481586   -1.81375492929521
H           1.98010385533664   -1.66905541336773   -2.58290566765877
H           0.91832304263350   -0.42591521008799   -2.03026977540080
H           0.62508410883891   -1.93628528851842   -1.56864205105047
