    26
        -50.45760683  Gyration_radius:  2.49514137255 Dipole_moment: 2.746
 S           0.97841213553746    0.37962427294904   -0.95991652458899
O          -0.32166441671112    1.07022994685296   -1.02034551157346
O           1.66323963311984    0.69012219239652    0.28003486438360
O           0.80526600664801   -1.05514927857326   -1.15234160517355
O           1.82412535943401    0.89267574236023   -2.15210484978683
H           1.90803964711715    1.85949538760346   -1.93009188070548
O           0.73544968316394   -2.72830810784059    0.90531734657747
H           1.56892248765258   -3.17298701634899    1.06486359250975
H           0.88806167168817   -2.12562348915738    0.14467204399087
O          -1.43908979116897   -2.44650399855517   -1.05484939821189
H          -1.21217745711942   -2.92712332812555   -0.24986860891485
H          -0.59521717328863   -2.03537914294125   -1.34123904718189
O          -2.29763263209223    0.03591812514007    1.95728066003059
H          -1.32277992601006   -0.14415169852547    2.12942035107061
H          -2.47158941846991    0.91394032135904    2.29985393183082
O           0.23242430307767   -0.39518711459481    2.24230242114366
H           0.78627326491560    0.10313547689743    1.60530023731967
H           0.37435791427805   -1.32961774549452    2.00821434979711
O          -2.41272710025616   -0.15787419202073   -0.55607473197868
H          -2.45756836064915   -0.08420120074596    0.47870974228946
H          -1.54630177420649    0.40155295863428   -0.81911576363530
H          -2.16024133264868   -1.13358732657254   -0.77587119174814
N           1.70190758076638    3.21559031030489   -0.98978985005314
H           1.82951094133990    2.66065215384371   -0.14815628705571
H           0.71642809057599    3.43467997238017   -1.06160348971466
H           2.22457062320977    4.07807676879559   -0.90460082066403
