    26
        -50.46302218  Gyration_radius:  2.50648667589 Dipole_moment: 2.707
 S           1.68439401779668   -0.83092163705317    0.82186156823118
O           1.51559445391321   -1.50659595138702   -0.45105441270908
O           1.63815093168076    0.62276403294063    0.67475895273831
O           0.82172383642570   -1.31032671557463    1.87668181963606
O           3.16933396543412   -1.16667726894534    1.27968110317664
H           3.15509720265730   -0.95202125572741    2.20673607858566
O          -2.68417848648588    1.13195663455751    1.56474448844058
H          -2.37163334994979    0.20945733902872    1.62595625995724
H          -3.46396910516095    1.11874805382848    1.00704853093578
O          -1.10271525126919   -1.34181165772075   -1.17079932486030
H          -1.55752919948960   -1.40817506989963   -0.31818389383566
H          -0.17486324373009   -1.55835034656036   -0.97598693956043
O          -0.77432901854619    1.09459153030355   -2.20499013934376
H           0.66457431394204    0.88812723961472   -2.19053399012789
H          -1.07855098143236    0.19398830422664   -1.94673580406857
O          -1.75631804011459   -1.43279418817239    1.52476052033905
H          -2.07409801044915   -2.12285349320048    2.10940469798564
H          -0.78294486671216   -1.36623986355393    1.68959150061376
O          -0.59073872829074    2.18819669098290    0.17657235509511
H          -1.33497765426592    1.93444917286880    0.75623560502025
H           0.18790424549307    1.72559534279299    0.52290566619163
H          -0.84341028048022    1.63376103743775   -1.37366324362808
N           1.71933092711233    0.64449407612853   -1.91908967882034
H           2.40977941498083    1.03507237047048   -2.54950428165463
H           1.79094892953044   -0.38171406388241   -1.81198895274844
H           1.83342400741321    0.95727967649718   -0.92440846558730
