    26
        -50.46302192  Gyration_radius:  2.50656811986 Dipole_moment: 2.710
 S           1.71634858449735    0.59528360655756    0.94989147517731
O           1.22446845637865    1.41346414670991   -0.15735714547403
O           0.72848354379288    0.46695455334231    2.00484535048544
O           2.28857062723303   -0.65448108825653    0.50563219078482
O           2.91054856170815    1.42357782946707    1.59432727948022
H           3.62688033724980    1.26219648336139    0.98884405691594
O          -1.20668794382996   -1.25248527618826    1.16829664413361
H          -0.70174651277942   -1.89573530984857    0.64908733367273
H          -0.53419026322617   -0.71296696206975    1.61825222105428
O           0.74904385708641   -2.61349130965833   -0.25341976679781
H           1.24309894282444   -3.41934454934656   -0.09384698724149
H           1.35227968353838   -1.87189053192610    0.00224570169373
O          -0.27903695730818   -1.91565579849307   -2.68203692683140
H          -1.12540148323987   -2.36374168111996   -2.72723843051353
H           0.14395662436670   -2.20563068317737   -1.85176905922139
O          -2.48855673787845    0.66981955274568   -0.16436353816723
H          -1.71580037736176    1.66437453001458    0.56257960572228
H          -2.20935854052569   -0.14522875048909    0.31303991690143
O          -0.66499283438730    0.70834907386683   -2.05541967892311
H          -0.48582332630197   -0.18235233750794   -2.41428752251854
H          -1.95534628323544    0.66785694341694   -1.00233631279317
H           0.11882592895773    0.95064348042724   -1.53855275374301
N          -0.90988391471386    2.26333605900094    1.04908744185826
H          -0.54223293451526    1.71452067553064    1.84478698176644
H          -1.18830454422441    3.20456694741564    1.30065860910872
H          -0.09514248411672    2.22806037620951    0.38905332346493
