    26
        -50.45780582  Gyration_radius:  2.41916232992 Dipole_moment: 3.151
 S          -0.67559687793668    1.53447348914365    0.63042910409907
O          -0.73538367605314    0.28552790685072    1.36588902147552
O           0.68145921637319    1.91731886115670    0.29088618313129
O          -1.55171694238630    1.53575819370174   -0.53432173469535
O          -1.25071759426390    2.64040010060484    1.59731870017091
H          -1.40700719058953    3.35550725456507    0.99022296849236
O           1.02294527176598   -1.40659771553001    0.25963514469614
H           1.86265417376513   -1.15672167200951    0.69871844071477
H           0.36434241988234   -0.86060093879677    0.73358483796843
O           1.38823437751075    0.35364474046720   -1.72831746237338
H           1.46381542865762   -0.43168060548535   -1.14116490970753
H           1.25119480820471    1.09385951969229   -1.09903307461224
O          -1.14176588721983   -2.24061127350036   -1.24590804257036
H          -1.83089148555667   -2.05590593041534   -0.56475176682844
H          -0.29729444712347   -2.25273546895029   -0.76613377048236
O          -2.69182468371716   -1.37450271645675    0.72385381208091
H          -2.89265283455832   -1.88062690182109    1.51271045622795
H          -2.05869906202469   -0.67717667829416    0.99695344681796
O          -0.98057699848370   -0.02956895637318   -2.41727609761365
H          -1.12083975505407   -1.00286397152370   -2.01994752964718
H          -1.35784545974201    0.61963951152190   -1.71978604480047
H           0.05534733427948    0.14012210249515   -2.31844218033753
N           2.88791129493745    0.22111903029484    1.35833417666404
H           3.03320538829564    0.25701579525788    2.35973296919032
H           2.21676730297721    0.95119674518032    1.12310796872662
H           3.76493588805345    0.46400957821119    0.91370539321540
