    26
        -50.45780589  Gyration_radius:  2.41866529626 Dipole_moment: 3.166
 S          -0.77420925399045    1.42131687002322    0.76315106522753
O          -0.00982412650319    0.43981874047737    1.50934030783163
O          -0.00547036430458    2.03424295987895   -0.30304264549923
O          -2.04423458801442    0.88949456686154    0.28553447194463
O          -1.14697554842413    2.55908642819667    1.79044156492457
H          -1.82357775037087    3.02670733221820    1.31322833998987
O          -0.71832305523048   -2.70612994686935   -0.21597798908487
H          -0.99291137566370   -2.52975373550562    0.71479607739536
H           0.19237015990301   -2.37600985887563   -0.28654968245332
O           1.44184667034645   -0.97888814751378   -0.23925598212773
H           2.23558359326972   -0.41662102750137   -0.35759246694466
H           0.95719780579232   -0.51430060424599    0.47198548188105
O           0.11935192374128    0.22471619121643   -2.23496667571031
H           0.05640876623413    1.04532153345790   -1.70088430871191
H           0.75071361562805   -0.33036716606015   -1.72452576179873
O          -1.27905664078721   -1.77452288429468    2.20295524094500
H          -0.86584680216471   -2.08636575385014    3.00966233411021
H          -0.89367434512250   -0.89171691820848    2.01902249139430
O          -1.96047411423064   -0.91833457344341   -1.46019123687043
H          -1.15148957484937   -0.46986216872994   -1.96659088704654
H          -1.52687788573235   -1.75420940474743   -0.97211172292733
H          -2.14756788210112   -0.22659384932841   -0.72768880317809
N           2.87830467855720    1.30489802686925   -0.47369998417789
H           3.28242435693669    1.64943138384767   -1.33613494051681
H           3.46027575415986    1.63150281335003    0.28778753804818
H           1.96603596292080    1.74713916274483   -0.36869179663856
