    26
        -50.46302226  Gyration_radius:  2.50660584804 Dipole_moment: 2.712
 S           1.21048752584253   -1.64661616566281   -0.16626187267492
O          -0.13924163255995   -2.17745123509494   -0.11521939895033
O           1.34078326824776   -0.59107758140446   -1.16877740999440
O           1.75600193054648   -1.26610074823971    1.11610004489860
O           2.11143919694455   -2.84729641724536   -0.69009850784151
H           2.98982765379918   -2.56935481145270   -0.45138772876407
O          -1.72954576266261   -0.35081488900118    1.12439174687625
H          -1.13544219942024    0.02341739207143    1.79165877143421
H          -1.25158582589605   -1.11902984999721    0.76787233248898
O           0.45975400983162    0.37785556743173    2.66588312661346
H           0.98275353591087   -0.22371746301448    2.07964516826277
H           0.73802894415546    0.17768480252035    3.56113242577706
O          -2.07994347139750    1.03092409093932   -1.13024720657156
H          -1.57112092620070   -0.10344631485995   -1.88441730400964
H          -2.13154303696599    0.62958383242469   -0.23223166587038
O           0.64061851426041    2.85543050968302    1.53892230264400
H          -0.15871280403938    3.30750541627705    1.81437975095722
H           0.63708489506033    1.98854388215390    1.98712138083669
O           0.36177614852781    1.99543946966292   -1.03162375491237
H           0.87609797790850    1.17420792854503   -1.06775221747105
H          -1.24690758051631    1.57181099789319   -1.11856403401926
H           0.56192927977137    2.40034028088429   -0.16543678771543
N          -0.97883910971135   -0.96659382888227   -2.27085983553037
H           0.02652938119733   -0.69028850578520   -2.16124646986774
H          -1.22267666672945   -1.24739280815645   -3.21339243773870
H          -1.04755322591548   -1.73356357159630   -1.57959041885729
