    26
        -50.45780627  Gyration_radius:  2.4189955814 Dipole_moment: 3.138
 S           1.69981977246567   -0.11698199780951   -0.55143408417417
O           1.17168235066776    0.92153592923633   -1.41501749004512
O           1.33293278704484    0.07369872807998    0.83900523326338
O           1.36858125073023   -1.45128903701832   -1.03513808971466
O           3.27361233983115   -0.02295781818084   -0.60635025663885
H           3.45220815301168   -0.39846832568431   -1.46155398295872
O          -1.22390471613967    0.87172047510902    0.91340912563999
H          -1.14765564428303    1.83863120103414    0.77351184631356
H          -0.28925531572645    0.59334938044695    0.98676415145885
O          -1.40379306854627    0.37368196668534   -1.71435571135294
H          -0.46703667733477    0.64148734941593   -1.82996643343789
H          -1.60741579094361    0.65306385686950   -0.79375003926748
O           0.66299628515653   -2.09530900029488    2.19567170822479
H           1.02681678314326   -1.34494814597391    1.67952031185006
H           0.88654353838661   -1.92586021464944    3.11224942135102
O          -1.77277496547136   -1.82530415491733    1.18349535372115
H          -0.94175205073129   -2.06205376763742    1.65946619935774
H          -1.85095404866288   -0.86012180444582    1.25939854065770
O          -1.06760843016778   -2.04884655716105   -1.21174821594944
H          -0.04825031260415   -1.96328201681038   -1.15224719769216
H          -1.42033646843067   -2.06855623713133   -0.21112421070257
H          -1.33584963266703   -1.09029522469543   -1.55871403928066
N          -0.25602865462443    3.18640102701951   -0.10652800829220
H           0.37571219925148    2.56219293470845   -0.60660189184889
H           0.31515834918259    3.80870292366493    0.45173407221581
H          -0.73344803253204    3.74980855014037   -0.79969632269382
