    26
        -50.46062685  Gyration_radius:  2.58219657168 Dipole_moment: 4.400
 S           0.57345261036062   -0.57837703556279   -0.21683506776139
O           0.62912732653302    0.88649938622722    0.04437867533715
O           1.38604555381052   -1.26687720914087    0.90104978902767
O          -0.80583305448021   -1.03055548481939   -0.08320157199285
O           1.12952250332227   -0.89143994310976   -1.51120132646517
O          -0.78625466448712    0.46686549255565    2.26092666049522
H          -0.27247128142151    0.81465828695705    1.51006599351036
H          -1.10048035768164   -0.38493238307789    1.93881427012626
O          -2.09966205292420   -1.91439703592242   -2.21362841523008
H          -1.94068799203465   -2.85413035429863   -2.31314392411183
H          -1.65667135432555   -1.65717811033268   -1.37369749860645
O           1.39693844946711    0.58256583007496    3.87268913824608
H           0.52630945870855    0.58815318921743    3.42305414207118
H           1.47948387624265   -0.27749588347458    4.28814884852045
O          -0.53196763081367   -0.10458615925405   -3.37293944915181
H           0.25328338928894   -0.40406252008303   -2.85292473160642
H          -1.17591127807319   -0.83696932630578   -3.25329269472714
H          -1.06849087956994    0.84944740184413   -2.40976325344382
O           2.87416573025140    0.65826514469952    1.64227756686855
H           2.48465107547790    0.74948190503491    2.54396699412931
H           2.10821107746232   -0.61700362153436    1.18713665500870
H           2.36060886276623    1.24270607983589    1.07011711072851
N          -1.39399595409260    1.40162438921639   -1.49632795255782
H          -1.67072958478405    2.36047029769138   -1.68273489706329
H          -0.55037192973480    1.34434075025451   -0.84160011727689
H          -2.14827188927788    0.87292689330616   -1.06133494407155
