    26
        -50.45813870  Gyration_radius:  2.47521899806 Dipole_moment: 3.010
 S           0.24503193807987    1.22341329437160    0.55817065623060
O           1.39996237546934    0.37375289190347    0.29269193815936
O          -0.33924532179666    1.72448802565341   -0.67622815551997
O          -0.74943489409461    0.51034095805472    1.36936696311688
O           0.71300361650920    2.42480026867418    1.42149596168725
H           1.35387961937796    2.88177067790285    0.81708151393639
O           0.51601190858022   -1.76003909684894    1.95593977210183
H           0.06822855047525   -0.89095401264013    1.94309339070114
H           1.30974193959471   -1.61573525656949    1.43249410701498
O           0.70540762208491   -1.45614173178340   -1.45331896132603
H           1.00453733721008   -0.78669049396063   -0.79358758807522
H           1.43865415553390   -1.59323362419566   -2.05420984986413
O          -1.57233339499428   -0.19655766765508   -1.94991887975682
H          -1.19011593779323    0.65365766449883   -1.61838118224107
H          -0.79980926483824   -0.80677270041766   -1.96736011312043
O          -1.49239301041433   -3.05283029546305    0.85849354991541
H          -0.64776591649095   -2.67719879875093    1.22602047929113
H          -1.91180719919153   -3.52449204455466    1.58037564225003
O          -2.55923475661529   -0.83146322955073    0.22570788954198
H          -2.21303154398957   -1.78141467881861    0.43054086285816
H          -1.94298517569661   -0.21692918811363    0.76276936902598
H          -2.25373409276541   -0.60303032566466   -0.79792798016754
N           2.17108009722382    3.07111423851057   -0.64204793107754
H           2.65376276932779    3.83408146696252   -1.09961539707406
H           1.32925761070324    2.84581250166569   -1.16345171320075
H           2.76333094851212    2.25025112678603   -0.65819435440248
