    26
        -50.46302226  Gyration_radius:  2.50657555827 Dipole_moment: 2.705
 S           1.45511002655074    0.46924727551795    1.36561044240388
O           2.12098875817618   -0.36184486948746    0.37975586118508
O           0.71742900951209    1.56586952542166    0.74151789353986
O           0.66109450222177   -0.25851617853567    2.32821407811594
O           2.62687183030292    1.15747705138979    2.19099970510109
H           2.18032705678909    1.45779411713413    2.97592723049052
O           0.24310551396155   -1.89515055147286   -0.85504486848830
H          -0.37767917855660   -2.08367196171681   -0.13578967026320
H           1.01132142768434   -1.48659647067774   -0.42071387015991
O          -0.39322569584645    0.06279996741101   -2.55117476612281
H           0.83159427768286    0.75521205280754   -2.18401080343672
H          -0.25688210674041   -0.78881887366624   -2.07546294917626
O          -3.23079549093748   -0.45227904275064    0.54041732863850
H          -2.53180094704424   -0.98584822231075    0.96364816485934
H          -3.63743230089661   -1.01303476743195   -0.12243601037330
O          -1.16786064293157   -1.93476977306517    1.53423568801900
H          -0.49951356983902   -1.28049940078272    1.85717668510452
H          -1.26420094967877   -2.57910438987255    2.23747070598862
O          -1.65416229937378    1.40627425092697   -0.67843744900001
H          -0.92944998253506    1.55549149893270   -0.05169150298018
H          -1.01869383166574    0.57716894168483   -1.97603041446290
H          -2.30835614701909    0.85494501380681   -0.20688443654692
N           1.68452036750788    1.23010457099653   -1.64348786784340
H           2.22823070899505    0.47818475898260   -1.18541739360712
H           1.26104589147201    1.70451469783319   -0.80998154111306
H           2.24841378213462    1.84505076893452   -2.21841023988298
