    26
        -50.45813890  Gyration_radius:  2.47511730339 Dipole_moment: 3.008
 S           0.23362896400378    1.30443716688906   -0.33429570926413
O          -0.15583051806856    1.55959769357287    1.04387662344265
O           1.36710866401850    0.38976521796661   -0.40521363868583
O          -0.89500885190060    0.79578196280133   -1.12352666361187
O           0.64651281280295    2.64357141225391   -1.00042393873976
H           1.38428572653105    2.95261328695804   -0.41290360214648
O          -1.31185319580897   -0.54741712374007    2.07275741639772
H          -0.57683644711426   -1.16772456830008    1.86206628876443
H          -0.93199985233824    0.34228209942312    1.86556767726600
O           0.16144397316370   -1.33911403182490   -2.31746701635297
H          -0.23436587894380   -0.47976402553116   -2.07088330951391
H           1.02348374534370   -1.32404517336454   -1.89144564014800
O          -1.75029579123699   -2.77669771043133   -1.22783573134705
H          -0.94293926452905   -2.35551221668691   -1.62836722930515
H          -2.28522434614776   -3.08205399098891   -1.96277535181598
O           0.81247643184962   -1.73689113716990    1.02649629429010
H           1.05726361900500   -0.95577793310269    0.47625076518971
H           1.60973071942255   -2.00992014332828    1.48193204804329
O          -2.60704810824104   -0.70395618365387   -0.02695651204842
H          -2.34065979683358   -1.60108216160200   -0.46111761036763
H          -2.15908486091888   -0.69498453134105    0.96905612688073
H          -2.03511165830712   -0.00904016923768   -0.51265226094316
N           2.39583244880499    2.82049545380826    0.92541880376380
H           2.97735395095944    3.46068593251401    1.45125978029166
H           2.93758356690498    1.99683032878034    0.69514376884741
H           1.61955396757339    2.51792053533364    1.50603863110868
