    26
        -50.45780588  Gyration_radius:  2.41868376132 Dipole_moment: 3.166
 S          -0.49593180842425   -0.39246236871496    1.67434528018154
O           0.94984966844480   -0.37225212636753    1.78693548903445
O          -1.01474180182200    0.74662886619394    0.94098889335444
O          -0.98593397630814   -1.66058975872654    1.14933449450281
O          -1.08478016310869   -0.27858914458452    3.13355819460804
H          -0.90709942925387   -1.14835153961359    3.47466349513419
O           1.86698583461255   -1.10537017746253   -0.58904033309419
H           1.60982034818753   -0.24662504535734   -0.99385183147056
H           1.71166034964492   -0.95949512468560    0.36860285761814
O           0.59986075694551    1.18778628653343   -1.15085435670359
H           1.30970055870527    1.73574785186679   -0.75571566353679
H          -0.04102107734811    1.10936072721324   -0.41624156147023
O          -1.16966357627243   -0.44295433099663   -2.51449393000350
H          -0.51731732529887    0.25285206650913   -2.33092786214866
H          -1.97080823234926   -0.19899016482622   -1.99343430788932
O          -3.00358860114925    0.27072751746895   -0.73646040035851
H          -3.51898323733634    1.07730243952428   -0.78672684960919
H          -2.34588731055114    0.40765259629298   -0.02208255117894
O          -0.23367721776388   -2.33014450255194   -1.15459569865963
H           0.74304507429749   -1.96268704023041   -1.00338106432097
H          -0.65319792059112   -2.17047510530983   -0.23336715780339
H          -0.67703743597927   -1.62143623645023   -1.80726083517209
N           2.34929190424723    2.03807287751610    0.73302430922308
H           2.18754309333478    2.89865415019666    1.24141844364520
H           3.34996326538115    1.88411264268331    0.70429439176424
H           1.94194824975231    1.28152465387849    1.28126853435321
