    26
        -50.45780647  Gyration_radius:  2.41873792515 Dipole_moment: 3.137
 S           0.53646863180785   -0.33796527946156   -1.67397149882453
O          -0.09160785124244    0.90968693195395   -1.28229114302300
O           1.73557629859579   -0.62224611922780   -0.90954076912149
O          -0.39743781190001   -1.45683485616508   -1.66350671415231
O           0.96724960076090   -0.15789511771503   -3.18093681533820
H           1.12519039754057   -1.05967421332897   -3.43830232036299
O           0.90015587954816   -1.44760434545645    1.46602062931069
H           0.61966285679775   -0.54077361948833    1.72300796566146
H           1.37628540602391   -1.30584391346948    0.61997444653960
O           0.00652844839999    1.07827669971815    1.38985438751678
H           0.89932717282592    1.45118140885088    1.54474284453687
H          -0.07019142988735    1.10926559265251    0.41532541099563
O          -2.73310697101378    0.91405537921495   -1.15436001446188
H          -3.01555968133544    1.81120552638412   -1.33910829536104
H          -1.76799493550832    0.88743980351645   -1.32648052620396
O          -2.49349998073157   -0.09902315403665    1.28446288566581
H          -1.74386256496275    0.43896565849888    1.58784727561516
H          -2.76279786410526    0.28669779268588    0.41741154806913
O          -1.30740124539260   -2.18706755454160    0.56398612486342
H          -1.05632107824724   -1.97595754865045   -0.40687996470563
H          -0.38580598993210   -2.03699487326207    1.05340434735838
H          -1.90912703682191   -1.37843115904465    0.89467898795541
N           2.65678061426424    1.47458734354130    0.99662638345285
H           3.38751369076008    1.11089170277772    1.59627288511203
H           3.00142534042341    2.33075920070318    0.58022044328104
H           2.52255008332339    0.80329873334870    0.24154150562619
