    26
        -50.45760684  Gyration_radius:  2.49511548632 Dipole_moment: 2.746
 S           0.36993450839336    1.12124783409818    0.79305570688670
O           1.40248755010800    0.16798822261271    1.15075118500180
O           0.33029218773337    1.31834727041272   -0.66650928345349
O          -0.94246264165577    0.72910324197264    1.29248020051509
O           0.70008789609742    2.49395479841773    1.43065940408301
H           1.60549707804314    2.67028708399601    1.05622306016743
O          -1.53443773517788   -1.81042070625042    1.78088204555760
H          -1.27219166972519   -0.86560474349456    1.72041999554765
H          -1.46431757575329   -2.04825574384001    2.70626839391735
O           0.64744611559438   -2.18827377734907    0.17449966934199
H           1.05032717724075   -1.35861618146333    0.50647165623427
H          -0.13658798478639   -2.31936517047698    0.73682573532449
O          -0.23208905796446   -2.00287695450364   -2.24622350838264
H           0.53421823715751   -1.99549251587687   -2.82173790588269
H           0.11941744103422   -2.13694045113496   -1.31301758571183
O          -3.02427275017073   -0.11184027633829   -0.10103531562622
H          -3.00254075755914   -1.01391462538572    0.23990289696410
H          -2.42866093843658    0.39047839512564    0.49568301763049
O          -1.40987727290914    0.21827589825628   -2.02957512982779
H          -2.17280240440780    0.06836228658125   -1.35161496270058
H          -0.67513541838558    0.75834251517334   -1.48060015355836
H          -0.97076265629685   -0.70752525819513   -2.19828334288111
N           2.97469589763513    2.30926381401671    0.18402746828357
H           3.93716649263798    2.61291200909177    0.25995502851353
H           2.68830849058263    2.36529021744229   -0.78507106730067
H           2.90625980098786    1.33527278710510    0.46556279136587
