    26
        -50.45760685  Gyration_radius:  2.49509084927 Dipole_moment: 2.745
 S           0.45384764999150    0.97257835625684    0.93335272712629
O           1.67022659940215    0.70246519360389    0.19157944713024
O          -0.63028584832109    1.37606643885264    0.02090110866753
O           0.03996986615683   -0.16212170614629    1.74990512684561
O           0.69957229354944    2.15594971967298    1.90243162348220
H           0.99271101198985    2.86757923124357    1.27097503396640
O           0.73915556185443   -2.64390596447278    1.12551725719060
H           0.58990701617591   -1.71935717646833    1.42225511168222
H           1.49017497200877   -2.96665056152790    1.62515447858533
O           1.20396146544105   -1.45431739605425   -1.29370046628073
H           1.10659520837708   -2.09623695614781   -0.56804999540484
H           1.45126051403508   -0.61711497193583   -0.84784981568327
O          -1.09316243664617   -1.34991037734848   -2.46847351604507
H          -0.97968625205600   -0.81625164261796   -3.25639857930760
H          -0.18061751014079   -1.43417625226381   -2.05306026701248
O          -2.04712087883504   -1.74306119566797    1.39283618997477
H          -1.52983788232665   -2.52690165627739    1.17266108774108
H          -1.39264954314442   -1.11377989072497    1.76541146700864
O          -2.39185264193112   -0.23261163575321   -0.61571731370854
H          -2.39052372250538   -0.89906832986943    0.17168619353831
H          -1.68882195556653    0.51293775393202   -0.32795713845698
H          -1.93865201713742   -0.71270108324446   -1.41727872275196
N           1.41422312742514    3.48845446450291   -0.21311517980174
H           1.85254424438147    2.60715104984720   -0.46568521859238
H           2.01536867984763    4.25344016218105   -0.49190559626787
H           0.54369246799611    3.55154441644439   -0.72547502366727
