    26
        -50.45816825  Gyration_radius:  2.42143015182 Dipole_moment: 3.473
 S           1.35652410095840    0.35880236684926    0.82536574509647
O           2.00278337009598   -0.47838485916095    1.80253811792634
O           1.51212207769699   -0.07884545479925   -0.55257483285072
O          -0.04266395973755    0.62854411486086    1.12914645019723
O           2.10972829118257    1.76234721552935    0.91543371635690
H           2.56805986469537    1.67138821847125    1.74403367854273
O           0.79811466503100   -2.73605824015604    1.15696342531318
H           1.29130443416140   -1.91659402130422    1.36519513172841
H           0.84413895284400   -3.28183351103486    1.94453563461717
O          -0.60191883905048   -0.78687496183832   -1.79122463879453
H           0.31461550618705   -0.60870365580481   -1.40159335631501
H          -1.11361392771715    0.09692728218899   -1.55612547910553
O          -1.49688868746680    1.40088486348917   -0.93743827885142
H          -1.06475303160407    1.23175453249532   -0.07161072351070
H          -0.85500358904984    2.00328678287712   -1.38349809988674
O          -2.38442265847961   -0.62670091035426    1.50666999711949
H          -1.51435213075150   -0.19033537993036    1.57088191917860
H          -2.97563541823961    0.02106188263385    1.11611406700630
O          -1.47971236874194   -2.45271842336153   -0.18458759473185
H          -1.02757008281719   -1.57308764876510   -1.15742950558676
H          -0.64922187768143   -2.71186371117329    0.27429337896510
H          -1.96125327751808   -1.88753131313562    0.46809805221951
N           0.81332640214197    2.50980349375636   -1.70098543778533
H           1.28082672029585    1.67026117459348   -1.36475095225907
H           1.10465494547177    3.26342701226184   -1.09044136140783
H           1.17081050809195    2.71104313081160   -2.62700907318040
