    26
        -50.45816812  Gyration_radius:  2.42138933118 Dipole_moment: 3.472
 S           1.59091348219614    0.15874700352487    0.30680304361125
O           2.63089789806762   -0.74574877546767   -0.10988214045527
O           1.03302300955377    0.97934694154152   -0.75618809960160
O           0.53330634657279   -0.48831934052527    1.07191034373615
O           2.30193163218024    1.17932561927272    1.30583644330117
H           3.11346012144894    0.71898052947931    1.49152412550303
O          -1.31940644132735   -2.41906286456814    0.86911718526381
H          -2.02027455343744   -2.02092287274595    1.39054658116491
H          -0.52913612799137   -1.86656282999081    1.01660254560733
O           1.24295269386442   -2.02227857190377   -1.95633348217026
H           1.67128811131103   -2.87533016128305   -2.05095576966038
H           1.78211958208825   -1.51715169358900   -1.31430937692393
O          -1.42369432378958    0.61482122464274   -1.33587984698364
H          -1.74095288182713    0.72239306921347   -0.34292690478152
H          -0.43336820345328    0.80832266250536   -1.26164684140655
O          -1.75142960092819    0.83691985284003    1.14599521105363
H          -0.94607726714058    0.29413798591919    1.29378999942292
H          -1.41263157594335    1.75739796340833    1.25449914252192
O          -1.39753950760155   -1.83151045705872   -1.71194375453885
H          -0.45143383790244   -1.96536553782562   -1.94518611118073
H          -1.48338995418725   -2.18993137037473   -0.79463507848841
H          -1.48339570524604   -0.45435632838357   -1.56930858871980
N          -0.12135960648397    2.95442116454131    1.05317313379649
H           0.44350894012173    3.04824085905417    1.88847209733541
H          -0.27263197266176    3.88394431124167    0.68041434449578
H           0.44331972251561    2.43954161653242    0.38051178809574
