    26
        -50.46062685  Gyration_radius:  2.58222575505 Dipole_moment: 4.398
 S           0.24008497498419   -0.69313962490613   -0.41457085880800
O           0.15375985572314    0.74926087894748   -0.77386337834081
O          -0.48565124003112   -1.50366514477482   -1.36270943027027
O           1.73752891854780   -1.06957241685234   -0.41683597320759
O          -0.24322875711422   -0.87070504889310    0.94910052467273
O          -2.46959647446075   -2.23275919778841    1.37536126795264
H          -1.60496772910813   -1.77100964205565    1.29105761998134
H          -2.25859452571916   -3.16286246505089    1.46831600607905
O           3.79826942881661    1.65869191594110    0.33488678794581
H           4.38125313545533    0.98905585827113    0.69658286382808
H           2.98269726309777    1.63542221861138    0.87759503250447
O           1.37948732100006    1.31506851843970    1.52172150217324
H           1.14591420212377    0.45877774201076    1.89622910422637
H           0.93490196679232    1.30938983038191    0.65509904177619
O           2.67050644498825    0.75867416859851   -1.91918737292526
H           3.20385930625429    1.20571521163549   -1.22010458274217
H           2.19349552633495   -0.47165879947739   -1.09529514417995
H           1.80219604733901    1.18106836470318   -1.90248580255047
O          -3.05356336429872   -1.16749470195329   -0.99112224560146
H          -2.15596513195693   -1.38140291028568   -1.34515579211570
H          -3.11306510835032   -1.71562858611517   -0.17783353309930
H          -2.73913496509341    0.12317453090521   -0.39107910721827
N          -2.26824957371489    0.99376289034058    0.12462396726975
H          -1.28403438535158    1.04253382383464   -0.29052305977811
H          -2.16706456648021    0.75818833532885    1.11044026872869
H          -2.78083858977075    1.86111424019199   -0.00024771629285
