    26
        -50.45813867  Gyration_radius:  2.47525360102 Dipole_moment: 3.010
 S          -0.09834824271537    1.30829982624867   -0.38320370462344
O          -0.02797494855581    1.56488960442218    1.04698223812694
O           1.06901271208462    0.56852919386578   -0.84824080820859
O          -1.33613813843609    0.60381454078827   -0.73963861505804
O          -0.14909460934773    2.66246514003295   -1.13904703317275
H           0.68819681817105    3.10280676838386   -0.83912529141087
O          -0.42252071316874   -0.64144420112396    2.39224133525125
H           0.28219986115272   -1.15548368153053    1.93551492900472
H          -0.27837875114543    0.28440992454350    2.07462592788854
O           1.37115177861304   -1.55103173858825    0.66695256878653
H           2.30798400539797   -1.68387756259680    0.81601369822209
H           1.28979958884626   -0.76758894942702    0.07324474255374
O          -0.43632417730622   -1.40427102264944   -2.24223101058994
H           0.50615710034772   -1.24310478599860   -2.13950083931269
H          -0.85125547776169   -0.60232362311507   -1.86713578907078
O          -1.61554067749293   -3.05721744798922   -0.57295365016607
H          -1.06835364201610   -2.54030968191535   -1.22329268662424
H          -2.31571366271243   -3.47044348006427   -1.08134539366362
O          -2.31770365586402   -1.08088287716937    0.86723285783373
H          -2.06044324558419   -0.33186139164343    0.22021294735451
H          -2.08184162957014   -1.94767592701335    0.36003541450282
H          -1.56239671583158   -0.96164396975843    1.64735595311062
N           2.10294173709334    3.18301640444919    0.06884892269263
H           1.62765779049849    2.79290496877305    0.87705373222937
H           2.71993381637197    3.92655402135116    0.37032287508752
H           2.65699308892887    2.44146991773025   -0.34092333074135
