    26
        -50.45816833  Gyration_radius:  2.42137800645 Dipole_moment: 3.473
 S          -0.27039599882663    1.07311719255422    1.19407087457720
O          -0.26772360753471    1.58057009622986   -0.16860249642551
O          -1.50797125844309    1.25821658225575    1.90644802047554
O           0.22325594939490   -0.29707134732660    1.23859238830872
O           0.79992743330907    1.95687647075072    1.98059116763989
H           0.34242973015849    2.11278488954377    2.79994028539378
O           1.94980433014866   -0.91453777053544   -0.66376994360085
H           2.48562576658306   -0.08607852016886   -0.68500672513337
H           1.41121696182229   -0.79961813540488    0.14976219869111
O           0.00158855550877   -0.12820051700967   -2.04283290827367
H           0.86090926741352   -0.55322239555552   -1.61936858926547
H          -0.18591326049615    0.63931492574796   -1.41092477260137
O          -3.06964565948062   -0.00260112558385    0.19270349677239
H          -2.50828613044214    0.51574374646696    0.80447077094707
H          -3.83333557425505   -0.28008676647472    0.70260282719772
O          -0.46842928068905   -2.79722458870192    0.55174713400163
H          -0.30433186892849   -1.93560363822837    0.97863154251929
H           0.39486403890822   -3.13835812254541    0.30689129276009
O          -1.82054591398255   -1.69051847865452   -1.43811695748485
H          -1.39379727898021   -2.26242445562530   -0.75388556481000
H          -2.40892730957126   -1.08862427786154   -0.92926733523969
H          -0.81576512723396   -0.83801298946078   -1.87156258326636
N           2.64029871686062    1.65377660373956   -0.38655485430731
H           3.06357370151326    1.85063753398077    0.51215986886759
H           1.64961531450138    1.86782442894763   -0.29092387021244
H           3.03195851274406    2.30332065892443   -1.05779527753061
