    26
        -50.45813886  Gyration_radius:  2.47518496989 Dipole_moment: 3.007
 S           0.65166968347455    0.91083050028381    0.78318985945662
O           1.30942494934745    0.51272483157755   -0.45587105592383
O          -0.51896813178650    1.73361339349837    0.52091005635858
O           0.30800581690606   -0.26615238378286    1.59072702673158
O           1.66372510116274    1.72532025420278    1.63158405602669
H           1.83419594053225    2.51524395123730    1.05538214886552
O           1.44422125646938   -2.24856300831025    0.22018141051898
H           1.75441597469822   -1.73703792335417   -0.53276769963353
H           1.16865835518759   -1.56778858077034    0.86557780882196
O          -0.48504966425411   -0.54675352908051   -2.04889885114467
H           0.21953412942020   -0.15802697982564   -1.47858725004693
H          -0.29785608402255   -0.26322023581135   -2.94457012281595
O          -2.45119100629012    0.28296849703486   -0.47760878303314
H          -1.91658001743572   -0.08523470008229   -1.21788370635109
H          -1.86744529475240    0.98442631664261   -0.09556773502998
O          -0.92389447253197   -3.37987007154666    0.07672361356466
H          -0.00170005003394   -3.01505317608493   -0.00157794189172
H          -0.85069977364761   -4.18303257015276    0.59551520946058
O          -1.93791103430843   -1.37981132281053    1.27816889614551
H          -1.06687364802846   -0.92083667356871    1.55498956617413
H          -2.31031848210964   -0.69452465465112    0.51382148162340
H          -1.63071074424490   -2.23207635748404    0.78459781961868
N           1.59084664814973    3.45237749568356   -0.32089446574011
H           0.58971799180631    3.28696841706002   -0.27964632081183
H           1.96436754704757    2.85472597469445   -1.04778911186848
H           1.76041503924732    4.41878255540469   -0.56970590908091
