    26
        -50.46798678  Gyration_radius:  2.46925412165 Dipole_moment: 4.281
 S          -0.79227549092920   -1.51582718935362   -1.33088720550215
O          -1.16964099764491   -0.09858047179862   -1.36415146905921
O           0.41571311227865   -1.73536264650821   -2.10737848440487
O          -0.74035244090223   -2.04507312521023    0.00564153795437
O          -1.94727740549991   -2.29248910865272   -2.08534137684131
H          -1.75247824638778   -2.09689541233203   -2.99564517974675
O           2.19356072709560   -0.85425352923225   -0.45122493913664
H           1.53498154398959   -1.28372367227489   -1.05300214654127
H           2.92401077908266   -1.46958699184133   -0.36797342100135
O          -1.18737806389300   -0.82848759092556    2.26651648519591
H          -1.05688160179832   -1.31109194839061    1.41517241135433
H          -1.49481690532509   -1.47909791505405    2.89889468971223
O          -1.96872732710797    1.39221421706149    0.80339520029990
H          -1.87776694098379    0.72313383938170    1.49886298245803
H          -1.85114151561507    0.90189195971143   -0.02750430949877
O           0.39386582551497    2.57945068759973    0.97620737070793
H           0.76053823313030    2.04994898901256   -0.33321659105540
H          -0.56640414893503    2.33976425534430    0.99308663446012
O           1.31565963220225    0.30557078688708    1.99805013140557
H           0.46922846874311   -0.10828192763746    2.23964977711393
H           1.64070071778631   -0.18683919681077    1.23043453868227
H           0.82389535066563    1.89205724016963    1.53861445063951
N           0.95722589622334    1.44855887555385   -1.24635193749864
H           0.08709531914341    0.87271435745866   -1.40866221083706
H           1.71246143527691    0.77995189444965   -1.03955690436042
H           1.17620407388986    2.02033362339526   -2.05363000450854
