    26
        -50.45813874  Gyration_radius:  2.47518264201 Dipole_moment: 3.010
 S          -0.38846844238054    1.05404081216345    0.77889036714710
O           0.23907582380499   -0.07412386842238    1.45691756185029
O           0.57466082327825    1.79328135442356   -0.02240745170257
O          -1.52651133168644    0.60509514449303   -0.03275761908821
O          -0.98329460078979    1.99938961896984    1.85599967637695
H          -0.17378325557648    2.29214845117175    2.34977178623632
O          -1.70795681117339   -1.97270036744769    0.61704496154845
H          -0.93120154247078   -2.02853830385084    1.18128446153760
H          -1.82314707758698   -1.01221937085144    0.47496507571657
O           1.55403084799544   -1.48760338903881   -0.31859488515092
H           2.37101853063214   -1.78855673306625    0.08074710986667
H           1.06931677051841   -0.98526351539849    0.37824637794500
O          -1.44632320175609   -2.53782315410824   -1.93671163923263
H          -1.47481172766315   -2.45349374229593   -0.94592920570216
H          -2.28722604598640   -2.91805058005931   -2.19710629773052
O           1.25346939137082    0.41555190273009   -2.13764919880129
H           1.52211177753598   -0.39080660722365   -1.64058859451583
H           1.11164017753001    1.09016084264201   -1.42795936023956
O          -1.15295097587330   -0.06141295149915   -2.44108118483214
H          -1.41218046005959    0.30498192289486   -1.52217125089615
H          -0.07992391736642    0.14256929722584   -2.46034189903576
H          -1.25600598330924   -1.08345407788864   -2.34606157852475
N           1.48673787235547    2.34058718991536    2.62052589648615
H           2.11455528677907    2.95987261303905    3.11730685363315
H           1.66559684712339    2.41072632190898    1.62334571857352
H           1.68157123474777    1.38564119954888    2.89431433854075
