    26
        -50.46798697  Gyration_radius:  2.46879902435 Dipole_moment: 4.262
 S           0.97467405576129   -0.82902678122328   -1.74813054930088
O          -0.41851573804136   -0.37123008169625   -1.70662739186255
O           1.86491929243307    0.28580281261978   -2.02156396135334
O           1.33790501833453   -1.60659997446793   -0.59382499322688
O           1.07907729074748   -1.79336015715944   -2.99939944948448
H           1.08658153031429   -1.17593211418579   -3.72307379776431
O          -2.28583952466541   -1.09658373996055    0.17614200474381
H          -1.73241556707833   -1.65797264105801    0.74021464404938
H          -1.73850470697757   -0.91869009562286   -0.60707696757717
O           1.92071190246981    1.39910404350350    0.31052168783534
H           1.98554387543061    0.92987708474106   -0.55888695413024
H           2.82014443911700    1.59421779682344    0.57904808339536
O          -2.05121913655783    1.22218656989962    1.43709479846048
H          -1.29968729230847    1.76446300159461    0.30963611142997
H          -2.35906781917526    0.36882873668764    1.04104845835573
O          -0.12163579666160   -2.25117708091899    1.46650170047663
H           0.21186432596696   -3.07627003436641    1.82106488507103
H           0.42823903084916   -2.04990672950113    0.67157389481744
O           0.27083553067683    0.32801139178226    2.37142294105399
H           0.15097074403254   -0.62150582710214    2.19796100907034
H           0.92263660467564    0.63432549313192    1.72435077439451
H          -1.29043125094283    0.96184419615676    2.00901915209876
N          -0.61104515977374    1.97848702559633   -0.53532043932282
H          -0.91033859903462    2.76775026185710   -1.09574027143872
H          -0.57113720189574    1.09313256188391   -1.10955510869408
H           0.33573416231090    2.12022425097006   -0.15640024108376
