    26
        -50.45816814  Gyration_radius:  2.42127464038 Dipole_moment: 3.471
 S           0.63462077692084   -1.11718663258145    1.00032687352278
O           0.55455912449939   -2.54607288609882    0.84145309548213
O           1.54588739021983   -0.45045372399505    0.08409302627334
O          -0.66653841816040   -0.46170848883077    1.00651741356557
O           1.25198474335994   -0.89355120562912    2.45440376326737
H           1.13552103801953   -1.75623490171953    2.83816172569049
O          -2.84042637767349   -0.09596968030298   -0.52441270758886
H          -2.15381230931585   -0.38926292402780    0.10328761446739
H          -3.06249924554383    0.80288572299225   -0.27072420519328
O          -0.60779676292497    2.12137622274093    0.45374906847297
H          -0.76908991723076    1.20729646761717    0.77550676853049
H           0.19866921744580    2.38684476282224    0.95676080931382
O          -0.14527119250225   -2.55561585497163   -1.70303340691609
H          -0.58887200182928   -3.39487251558834   -1.84092007168450
H           0.16906053628782   -2.56343564237141   -0.77611139238871
O           0.52308895528851    1.18401356986972   -1.58551063541672
H           1.04684634346388    0.51554517033840   -1.03563019702994
H           0.00870432910508    1.71861187605390   -0.84536446620056
O          -1.19777018526402   -0.28215904002528   -2.59332810026816
H          -1.94513915986095   -0.20822220925920   -1.95048122709137
H          -0.22580004795392    0.58484406688516   -2.11589573235258
H          -0.80328125250981   -1.16577944195589   -2.41734279918312
N           1.75958209830307    1.97630991936465    1.68818896111057
H           2.59775082115758    2.53222338288188    1.56858172198830
H           1.90734845639945    1.08792664039783    1.21342788100634
H           1.67267304029903    1.76264733538248    2.67429623862540
