    26
        -50.45289442  Gyration_radius:  2.64768331545 Dipole_moment: 2.990
 S          -0.17188083542480   -0.04234796794510    0.79719404118937
O          -1.01477278980799   -0.25296593048768   -0.45629662682868
O          -0.30204499927723    1.32112168937885    1.21550470348791
O          -0.52065758982816   -1.04252393555645    1.77680741672901
O           1.27446067169614   -0.30051943274069    0.33282930409166
O           2.12301957232972    2.95720254575700   -1.59816533953154
H           1.13114193926516    2.86772680792068   -1.61700679198877
H           2.46295105298313    2.40750547728506   -2.30581495204421
O          -2.74403834416285   -2.54865109624469    1.37881050924978
H          -1.98176690838345   -2.04379284266855    1.71519555667763
H          -3.52731739815063   -2.04084988690256    1.59456712300772
O           0.88472462899678   -3.06043981632822    0.64716947810680
H           1.65314415111401   -2.57908571210434    0.32990140834594
H           0.45708051588006   -2.46916948647001    1.29005926729062
O           2.35470798101417    1.89510171325819    0.79360608828807
H           1.81840578663255    0.57370430528796    0.50530969882107
H           2.39495256275226    2.36509357587475   -0.08394246006572
H           1.57462467464910    2.24241812726641    1.24471605192211
O          -1.27076755357737   -2.68761601818252   -0.85386256079225
H          -1.97281486566826   -2.86561068017567   -0.19332333254038
H          -1.12535169732747   -1.29414412001003   -0.69121709389179
H          -0.44408900941333   -3.03738557619840   -0.44253211401080
N          -0.50312037492067    2.48739121241110   -1.42119516547438
H          -0.83906386900099    1.70080018028922   -1.96446753762700
H          -1.15785800007402    3.24972161583857   -1.54766147308903
H          -0.55366932229494    2.19731524146001   -0.44618520928281
