    26
        -50.46798678  Gyration_radius:  2.46929250426 Dipole_moment: 4.280
 S          -1.44658496720294   -0.21896692274245   -1.59915419524752
O          -1.19250236298542   -1.22430392704079   -0.56145631452361
O          -2.40399004874435    0.76539346317002   -1.12520479718381
O          -0.23602349715836    0.34358053069690   -2.13497449207150
O          -2.15730904686897   -0.98821041353804   -2.78630940454095
H          -3.03940602858843   -1.09853269666026   -2.44786417973044
O           1.33242066786828   -0.70077775156115    2.34471969889610
H           1.43711901541917   -1.40430006817274    1.65624501912599
H          -0.08458442985548   -0.39458380104643    2.17507104974230
O           2.23545400203581   -0.16848591285595   -1.48672860012788
H           2.78626704879993    0.00600053810559   -2.25083397169493
H           1.30587422681052    0.00370744801921   -1.77123709076804
O           1.28065198137974   -2.18892296332452    0.15299674520585
H           1.83624447216287   -1.65319886274767   -0.43342603069293
H           0.37142539031147   -2.01892338511494   -0.14558747368535
O          -0.87955382565235    2.19468563105761    0.39563507918659
H          -1.45037620995798    1.71661521520121   -0.25710524500327
H          -0.99820257971469    3.13018392339576    0.22309064103246
O           1.82477930341388    1.37839193545142    0.76322719427765
H           1.70910195201256    0.10759651883553    1.92263159585787
H           2.10535324265400    0.90000362557900   -0.03585383293025
H           0.94884841931433    1.73816651701924    0.56143688737329
N          -1.10330377533585   -0.12084918015801    1.82714055626746
H          -1.24163151602611   -0.62248820192570    0.90827027297688
H          -1.11457717397257    0.88598782963957    1.61175199433350
H          -1.82549426010825   -0.36776910932936    2.49351887392661
