    26
        -50.46798687  Gyration_radius:  2.46829102099 Dipole_moment: 4.252
 S          -1.11802689278121    0.68698723932478   -1.72217212677381
O          -1.00286037134751    2.11359892574883   -1.47411327954630
O           0.21182539096375    0.07039594931962   -1.78112033326730
O          -2.00894324441833    0.00081386425592   -0.82512405357310
O          -1.73066964599964    0.53977968598760   -3.17459441167012
H          -1.25731415448175    1.20952669383920   -3.65678577127259
O          -1.54516101422887   -2.10656199253415    0.63556731572440
H          -1.74573274319193   -1.33410390425790    0.05416130639547
H          -2.37485732809177   -2.56800610474711    0.76349434157324
O           0.94010606649393   -2.29068990662957   -0.57668016955375
H           0.72447480652677   -1.54126401943877   -1.15681856782347
H           0.10584412655378   -2.50483366915594   -0.13197821465962
O          -0.51079094129452    2.08616162282296    1.06364921906060
H          -1.07075222436738    2.70797716562099    1.53153511868305
H          -0.79385173363896    2.11589399244268    0.11548035376784
O           2.20297227057776   -1.01362149890350    1.37119657372862
H           2.11133538102743    0.23348562182562    0.62014039263974
H           1.89541933770176   -1.65144276488486    0.67941522961056
O          -0.19252995280781   -0.42932565296492    2.36271396477737
H          -0.41116737931396    0.42748524124569    1.96834052797721
H          -0.72294083883621   -1.08651828423258    1.88021726811683
H           1.41608228175356   -0.89253551409010    1.95421678123795
N           1.82165066780085    1.12119901656933    0.01778100966297
H           1.25093340442805    0.75080389398357   -0.78970820576937
H           2.62035650793355    1.65225038256611   -0.30875128940353
H           1.18459821301973    1.70254403626619    0.57993702037139
