    26
        -50.46798678  Gyration_radius:  2.46856366233 Dipole_moment: 4.248
 S           2.00217115996091    0.48284191207290    0.67150528592655
O           1.88976719417785    1.92896114123387    0.59302294008235
O           0.94450152858593   -0.06541866059955    1.52766314945836
O           2.07920720298090   -0.17442637794575   -0.60564673002259
O           3.36542107343218    0.18637395605889    1.41996056719624
H           3.35445826430414    0.83651024434822    2.11447908054978
O          -2.65994485356100   -0.78155533350408    0.27204774987937
H          -2.00846637629881    0.39299180749046    0.84122366017274
H          -2.04990747394736   -1.48928141093576    0.59894719178368
O          -0.06780522798067    2.13558692647326   -1.08253131391239
H           0.74274967655093    2.07245892226923   -0.51765759561983
H           0.13742835324220    2.76170308584849   -1.77901585068728
O           0.61615260291352   -2.12176163770086   -1.53172876654811
H           1.20446553580210   -1.41299022973678   -1.17627031371468
H           1.14131783949808   -2.61381646999022   -2.16401134544861
O          -0.58488213810431   -2.27815010750613    0.96121133447912
H          -0.23005432009318   -2.49656502046753    0.08600038808097
H           0.01121579559123   -1.59148708017595    1.30449202836033
O          -1.35534584191349   -0.24123993850738   -1.97918988944956
H          -0.70319807384105   -0.96251190188722   -1.95591232186297
H          -2.39725997303378   -0.65336044036910   -0.67052023970192
H          -0.86157451267638    0.56730668288589   -1.77936191614826
N          -1.32791423286564    1.21188444372908    1.15905875177138
H          -1.70000630717394    1.75560478313367    1.92880281014946
H          -1.12548258766368    1.80313875338970    0.34098642875600
H          -0.41701427788149    0.74720194038428    1.42244491647578
