    26
        -50.46798686  Gyration_radius:  2.46804208315 Dipole_moment: 4.246
 S           1.45623953919763   -0.04767293804413    1.60035697432091
O           2.62732570145673   -0.35173936661130    0.79660713683968
O           0.79807806707780    1.16613143307518    1.10468465109419
O           0.54432604427738   -1.14895113724363    1.75728977243833
O           1.99440767144359    0.30853300922281    3.04612640711676
H           2.75802254161851    0.83969860654195    2.84690243043331
O          -2.01831529106736   -1.22455183238655    1.29123761707242
H          -1.05677299287799   -1.19532325213572    1.51348914472386
H          -2.40677776184834   -1.88339027160671    1.86805947466590
O          -1.70838052755080    1.17673367550667   -1.86039837208407
H          -1.95934177508854    1.43595411808516   -0.93854498851378
H          -0.25777557614927    1.30514158145936   -1.77031470685740
O          -1.90940377424496    1.49411494740786    0.76238775405237
H          -0.96756280011490    1.51366783310335    1.00172642904837
H          -2.21069871398019    0.61034773624498    1.02259485276449
O           1.48050471091002   -1.38559967052026   -1.27670462454187
H           1.93643168386533   -1.08182583237574   -0.45216970966341
H           1.89440399849413   -2.21433570536229   -1.52358187941737
O          -1.36633383637665   -1.41589514728007   -1.38578561079153
H          -0.40630835939274   -1.52094800811298   -1.31649341247486
H          -1.70347085068922   -1.45105484542718   -0.47412717229716
H          -1.76907349561282    0.19186549013997   -1.85861670988971
N           0.82495560561108    1.25431918187820   -1.52636218137888
H           1.17273783574299    0.31908493308942   -1.77992628009116
H           0.88914659054670    1.31931386303214   -0.47432763923452
H           1.36363575473980    1.98638162831692   -1.97410937731675
