    26
        -50.45987759  Gyration_radius:  2.41941331477 Dipole_moment: 3.161
 S          -0.25780827664131    1.02918426117225   -0.06888018055787
O          -0.28580742796652    0.37668462189205    1.24305175384384
O           0.57770603110166    0.24276731947652   -0.98972881845526
O          -1.60001425701527    1.20194151652123   -0.59988827143312
O           0.36187183161295    2.42605155753089    0.07952316739326
H           1.38583635251511    2.36253193284763    0.16065716336484
O          -1.32168579894633   -0.78272888868292   -2.41616650161121
H          -0.47841831450001   -0.45230651762062   -2.01253400006810
H          -1.90215197435629   -0.01306462940905   -2.35766701671557
O           2.37825073784449   -0.49330403024723    0.79484524290464
H           1.83120097330371   -0.29677358629351    1.56244420427376
H           1.80328742327684   -0.29442559300473    0.02661527739470
O          -0.04100999796582   -2.18267581340124    0.89017834283752
H           0.85439771025276   -2.28769709415600    0.55302478070239
H          -0.12975679722126   -1.21638986654345    1.10897588732358
O          -3.01523437209843   -0.38040323389721    0.85434225655258
H          -2.50750440394977   -0.36558714227172    1.67244536988434
H          -2.60762807849681    0.34220678170219    0.30618991474801
O          -2.10830108466976   -2.26475473166269   -0.54581844986993
H          -1.23919295993952   -2.40355131310535   -0.00521142140366
H          -2.62724400333989   -1.56558141576433    0.03823713632069
H          -1.81987724023390   -1.73317320051932   -1.40990312514903
N           2.93194561730358    2.23775042535308    0.26689776765802
H           3.09302925622347    1.25640255458536    0.49947544114727
H           3.35732077163929    2.82281368632554    0.97333524027734
H           3.36678826227938    2.43408241916607   -0.62444117135435
