    26
        -50.46798689  Gyration_radius:  2.46855815046 Dipole_moment: 4.254
 S           0.80423111302517    1.85110680181233    0.78626663098849
O           0.33072230532789    1.70437582503402    2.15164179627633
O           1.61110843565773    0.68904040207979    0.39816490718659
O          -0.22842839780388    2.15362700739868   -0.16827818401698
O           1.79464856594888    3.08617983720391    0.79351001630462
H           2.28018099391141    2.94471748624910    1.59929962453322
O           1.43291834317402   -0.65353816176599   -1.99386533542949
H           0.70781253180435   -0.15587894567140   -2.40154621798839
H           1.66562578878854   -0.14382453341494   -1.19969849163440
O           0.07822667195029   -2.64114239711120   -0.88260830914827
H           0.40565876794080   -2.12967540315652    0.44381523310956
H           0.66576322019249   -2.06769534551944   -1.43562113594494
O          -0.80994897811744    0.92522084330109   -2.39155818876346
H          -0.57274104392961    1.42451054115833   -1.57344926637221
H          -1.20441732366171    1.56161842325970   -2.98911819846179
O          -1.60567416361537    0.03349101092297    1.77738436923195
H          -2.40486968049308    0.32540151076469    2.21924659280712
H          -0.93257629527135    0.74509748190603    1.92106322392889
O          -2.02035589265590   -1.01138758296969   -0.83946018596199
H          -1.71301451612903   -0.34737842655154   -1.48028093786541
H          -0.81591921131621   -2.23514645238918   -0.98023576999666
H          -1.97147284242288   -0.58359482274938    0.02773829175614
N           0.59162165265773   -1.53726031331056    1.36530300490925
H           1.09813068558405   -0.66501814127360    1.05277416666485
H           1.12777767363282   -2.04620012834004    2.05818788363522
H          -0.31500840418571   -1.22664650691291    1.74132447027348
