    26
        -50.45760684  Gyration_radius:  2.49512745166 Dipole_moment: 2.746
 S           1.34883621005145    0.42138250008437    0.16227283566332
O           0.94460506203698   -0.02540315657113   -1.18224751380629
O           0.62968551000484    1.62337360114588    0.53754106667968
O           1.17529411034681   -0.65305726169409    1.13233554935349
O           2.86546053145770    0.73168921501344    0.10388182134074
H           2.88688949649544    1.47698319404265   -0.55578673393409
O          -0.96275214907770   -0.77073315386115    2.69862185610875
H          -0.80957828818776   -0.43024067889453    3.58091562550635
H          -0.11836331294575   -0.65487429330704    2.21011130372569
O          -2.73697780613265   -0.56123630969791   -1.14262738043658
H          -2.95320567181606    0.01889292034275   -1.87417337284994
H          -2.48239971125579    0.03784227542678   -0.37541011731849
O          -0.17497058585602   -2.90503713782300    0.83563940194199
H          -0.86506292164877   -2.68073635144894    1.47121293823154
H           0.53039449971665   -2.24152080989772    0.99494719658752
O          -1.92838784514912    0.94126029043577    0.79565781819988
H          -1.03091641578588    1.30931916328929    0.65450289634106
H          -1.83199900879869    0.35597777287671    1.56784837918614
O          -0.62708315528676   -1.91015122373301   -1.45348696406116
H           0.09518364135662   -1.13083527027644   -1.39098338478946
H          -0.50117821944163   -2.44256330868834   -0.57892668637990
H          -1.53836035626197   -1.41808222900639   -1.37773300379868
N           2.22158154806305    2.60256994969197   -1.58338715470195
H           1.44124165833918    2.73421303333705   -0.94592992507138
H           1.88167826462585    2.06627511682003   -2.37150506203875
H           2.54038489515818    3.50469214237125   -1.91329137964597
