    26
        -50.46125488  Gyration_radius:  2.41015551354 Dipole_moment: 3.136
 S           0.74423391775064    0.62498586643617    0.51750528227447
O           0.95548515336663    0.09980307958776   -0.83092210698322
O          -0.13013680455610    1.80160721737317    0.47315399044598
O           0.20362643788617   -0.39294714996382    1.40465947691869
O           2.11628895573088    1.05614660750315    1.08180191166602
H           2.38661268863753    1.76089339342069    0.42215699255218
O          -0.92281982639980   -2.54195231136600    0.23700004619860
H          -0.19204310041731   -2.99314857816132   -0.21377270260739
H          -0.46285212579731   -1.86093894725976    0.76662177936821
O           1.62740748167291   -2.52465336953375   -0.76191548942510
H           2.39157351350716   -2.59321456472941   -0.18815232644951
H           1.45430882403274   -1.57052545845162   -0.86959982085582
O          -1.48304794648968   -0.67680995119712   -1.52994429327875
H          -1.44348955996352   -1.51262314717237   -0.99335582853510
H          -0.55555416966739   -0.35398790453610   -1.51349867098740
O          -2.36895127889980   -0.60309809178617    2.06610594273864
H          -1.39692813333361   -0.48802324605258    2.10571766716420
H          -2.50671282678718   -1.51717431024555    1.79547295318379
O          -2.44777359451480    0.96523745090557    0.05748865752261
H          -2.15484962685888    0.26322415628605   -0.71789226359630
H          -2.59816482936254    0.39000393295704    0.89377599097489
H          -1.54917426180845    1.45185692818350    0.24713510949245
N           2.20786501553233    2.70714976827132   -0.90044764616712
H           1.27909182859811    3.03542327874410   -0.65892661727519
H           2.09694697080513    1.99693692848203   -1.61447410299862
H           2.74905733733997    3.47582839230069   -1.27569389134342
