    26
        -50.46798690  Gyration_radius:  2.46890770905 Dipole_moment: 4.267
 S           0.16621368424845    1.55324881773729   -1.50137205828553
O           1.21463689494523    0.57474570910335   -1.19236182313941
O          -0.77735842599384    0.99805026107515   -2.45622663820031
O          -0.44262901415034    2.10576270345643   -0.32111668141879
O           0.89136244329428    2.74898952485985   -2.24348079125158
H           1.03563728001848    2.38348092303858   -3.10979710405825
O           2.17396802636398   -0.00598310476168    1.31762551539095
H           2.00487688517377    0.25123184539463    0.39571372398452
H           1.60366572801750    0.57540386727668    1.84333166296479
O           0.78496083524479   -2.25963953017710    1.42779449447533
H           1.45518723453838   -1.53667580172103    1.51746855794574
H           0.49491572569410   -2.15629112954226    0.00185638553484
O           0.06639405687018    1.57443724252427    2.17869141911427
H          -0.10582371975668    1.81545310721356    1.23684135243603
H          -0.15121228268588    2.34964800388949    2.69773506467959
O          -2.15989493112855   -0.52862788926548   -0.89480334776401
H          -1.70307750023790    0.12342926644243   -1.48339413598151
H          -3.10038532981033   -0.40204394590791   -1.03114579869129
O          -1.37015876073595   -0.75812528171075    1.83224229345309
H          -1.72474195033828   -0.60586528323417    0.94425776496078
H          -0.04767024328741   -1.86099368273220    1.77661621114044
H          -0.93313630507331    0.07194646038057    2.08924531442220
N           0.22234897036822   -1.85872003478708   -1.03343305475629
H          -0.79304067995550   -1.69201153860336   -1.06788819564798
H           0.51236256944561   -2.53820241109565   -1.72680668641551
H           0.68259882892616   -0.92264809885689   -1.19759346491602
