    26
        -50.46798692  Gyration_radius:  2.46877228592 Dipole_moment: 4.262
 S           0.05678264079926   -0.13418382454207   -2.16129962380934
O          -1.30354533526420   -0.60213763092345   -2.36300570082811
O           0.05734354277331    1.12068135126560   -1.40137466290534
O           0.94516476092527   -1.11967496633618   -1.60578587863313
O           0.61616556400225    0.22625298220518   -3.59776493268429
H          -0.13048894800951    0.66049265643338   -3.99636181706612
O           1.73454204786604    1.72443710648364    0.69162163726768
H           2.22452392597429    0.88989010390395    0.74734063029227
H           1.21934943773305    1.65307581815717   -0.12942945509808
O          -0.17478526591242    1.27312852764876    2.47270491520433
H          -1.17000697563214    1.24621063068368    1.40572470838287
H           0.61003262453325    1.59801103230671    1.96440673498405
O          -1.78968702148075   -1.59469486986197   -0.02644568648246
H          -2.17349923733538   -2.47046620140511   -0.09578226585638
H          -1.58391730048519   -1.30692912492323   -0.95113325659158
O           2.46933179025452   -0.94085934782562    0.50023646071338
H           1.92899621885657   -1.00567388167147   -0.32356574889373
H           3.21915988230198   -1.52386344512220    0.37549194834570
O           0.18605612886108   -1.31867912600417    2.00710821680279
H          -0.02264335045130    0.30173813683323    2.55599134823510
H          -0.44609743039747   -1.52570765038450    1.30359029575499
H           1.05743963720758   -1.27775974142097    1.57701115030218
N          -1.77556727717499    1.08807157219916    0.48788051083130
H          -1.10713766476275    1.19200533463920   -0.32306265305202
H          -2.55035428682443    1.73652079517570    0.41178306339269
H          -2.09715807835185    0.11011376250101    0.47412005139018
