    26
        -50.46154463  Gyration_radius:  2.43337941318 Dipole_moment: 1.414
 S          -0.35462670784828   -1.00616131797192   -1.85566836505357
O          -1.63657189861329   -0.33868328485923   -1.94129578775349
O           0.74951735718617   -0.10913764441435   -2.18639912503934
O          -0.13489775965861   -1.67659041633946   -0.58735316479763
O          -0.36400291941676   -2.14257540289801   -2.95281061954599
H          -0.77157920750628   -1.72155268274378   -3.70274532757996
O           1.81665627188590   -1.37487375616990    1.21662200304546
H           1.28591122875410   -1.06877317107394    2.00868074661927
H           1.16745520631571   -1.77786911281565    0.60958637981995
O          -1.74678388529709   -0.18677587476798    0.87014004342522
H          -2.45572894993285    0.02164237704185    0.25477569987072
H          -1.19909047532150   -0.84314390316574    0.39005755797709
O          -0.84011451495782    2.19960251811684   -1.84547192911731
H          -0.04075863539268    2.12496387816258   -2.37355321207649
H          -1.27049278572036    1.32431675167998   -1.92390583242232
O          -0.07287100024215    1.91467982645919    0.67603753577789
H          -0.70378070056717    1.19531021437216    0.90018778250603
H          -0.39348291110937    2.25365956860640   -0.19337298811907
O           1.97622212015960    0.70206253330798   -0.12656595867898
H           1.19346356858594    1.27683623379148    0.28240759928466
H           2.03454937612394   -0.18863273893085    0.48933394527133
H           1.59675519998410    0.37681648115582   -1.01598152781677
N           0.23421278636592   -0.35823062077797    3.10203577433934
H           0.15883576651758   -0.80717540119115    4.00550280750283
H          -0.67132005662925   -0.41098964339369    2.64648576132015
H           0.44252349639085    0.62127458882924    3.25327020123523
