    26
        -50.46154441  Gyration_radius:  2.43330525437 Dipole_moment: 1.421
 S           1.55685426538503   -1.45161317637480   -0.22667559830989
O           0.81381662564631   -1.95809489772106    0.92407760777289
O           0.95675087199618   -1.86029764317826   -1.47936348096442
O           1.77720198593572   -0.02021247496564   -0.13061306696399
O           2.98851764603561   -2.11731195717717   -0.17514554439104
H           2.83692072633913   -2.99240533190138   -0.51718826356274
O          -2.02995832970250    0.00977614578356   -0.07737900056995
H          -1.42143878945950    0.39963757827383   -0.74341453727338
H          -2.06702576217303   -0.94675735883796   -0.31646668956122
O           0.90056888103657    1.74867819518822    1.67373452797448
H           1.48010217582962    1.25143987968943    1.06601461498765
H           0.35425603694441    2.34972825027982    1.08803004138440
O          -1.47663238502069   -2.52381507761622   -0.62812377120686
H          -1.23684233953993   -2.92943521556714    0.20934037646829
H          -0.62211861824889   -2.35091244313579   -1.07251250934773
O          -0.10349308614002    0.72891580217971   -1.81697317486961
H          -0.09933713450098    0.02047296514016   -2.46719265540654
H           0.67261001580012    0.53711262698614   -1.24946012926047
O          -0.62667455960220   -0.17607573378460    1.99875077928773
H          -0.02874222748897   -0.94094247556810    1.68526503462885
H           0.01515144412198    0.69818246309187    1.98240996152164
H          -1.30148176990296   -0.04500245159958    1.20018570110755
N          -0.67292843324665    3.05720997214337   -0.03035651758109
H          -0.47137918954732    2.56839806574051   -0.89689541304147
H          -0.54677834936980    4.04801626761008   -0.19085181000433
H          -1.64791968111925    2.89530805530418    0.19080352715527
