    26
        -50.47166718  Gyration_radius:  2.38836293444 Dipole_moment: 3.165
 S          -0.97001233205137    0.20383968772889   -1.01831699179673
O           0.13073731399954    1.14697228163116   -0.80181841081237
O          -0.55423471979137   -1.16482624645959   -0.73032583226108
O          -2.13421319155640    0.58519714782154   -0.23390982434169
O          -1.36099113095443    0.27162180249850   -2.51835122812368
H          -0.49084315010427    0.17570730680011   -2.98042676523851
O           1.18341784143051    0.15812010622804   -3.09735145125734
H           1.59175545925817   -0.63570231975366   -2.70632681240847
H           1.20969753166524    0.82001668810096   -2.39240205525188
O          -1.58750441754774   -1.53024393514223    1.69011159616684
H          -2.44358298070829   -1.11684839918366    1.55580704079536
H          -1.18423923742387   -1.54932011365896    0.79936699401796
O           1.93399856882738   -0.00318540381137    0.81693641367820
H           1.33880323624240    0.45726094759316    0.19539176319646
H           2.24164313686729   -0.77738690330986    0.33176011360808
O           1.86831348038786   -1.89340693249888   -1.38195593653198
H           1.90013963220008   -2.83339915336799   -1.56543866959870
H           0.94276057419577   -1.69795609892651   -1.10427914094310
O           0.18213460508655    0.09978508280129    2.82558240880958
H           0.96746351303566   -0.03611605065279    2.24733886503110
H          -0.42745264596086    1.26137673889671    2.19118186207672
H          -0.44601446641952   -0.61985555900474    2.58048153217641
N          -0.87700037317243    2.02824288025618    1.51927381745085
H          -0.15010640317489    2.33233709151992    0.86656036060290
H          -1.29866603358146    2.80524253019554    2.01682396152405
H          -1.56600381076885    1.51252685372878    0.89428636943247
