    26
        -50.46256835  Gyration_radius:  2.41371990394 Dipole_moment: 3.854
 S          -0.20635548752368    1.23303414367229    0.24898188210233
O          -0.07378893810897    0.60583981995187    1.55629457930148
O           0.89979922670807    0.81418445424582   -0.62117791154164
O          -1.49394670941291    0.94052162784317   -0.36695689868752
O          -0.12478281936105    2.76964734154151    0.41160630568399
H           0.75001903370344    2.89013331432924    0.87385206614874
O           1.17372869758073   -1.64699251544652    0.29512523899906
H           1.15832325683875   -0.72810615894937   -0.05060032563274
H           1.10071804661645   -1.54479271630564    1.24776008731938
O          -1.24075311007945   -2.56467284476903   -0.30312856033812
H          -1.70490380031185   -2.13676251155066    0.46621615912109
H          -0.28089522930432   -2.40554220471878   -0.12514306497311
O           0.73746681430346   -0.54416282433539   -2.86176194329674
H           1.31484673784795   -1.28972539940088   -2.67897637909108
H           0.88665728733738    0.09796870239892   -2.12934564992680
O          -2.19005650870727   -1.00230046979888    1.58152023291726
H          -1.40681231084079   -0.42548501015301    1.70740937870998
H          -2.84522126693800   -0.43031326970706    1.17341695938632
O          -1.66878346212871   -0.90091825131297   -2.07372836461343
H          -0.77510795772421   -0.81146260812003   -2.55534628437877
H          -1.53719370694121   -1.73190373103980   -1.34393620711967
H          -1.70029006346132   -0.08125885085498   -1.45794274520889
N           2.13727488062269    2.39475733911980    1.64725346546854
H           2.77347109066453    2.04701502811287    0.94153719152184
H           1.64358331830727    1.60007985074044    2.04290334684640
H           2.67300299031168    2.85121773450176    2.37416746128238
