    26
        -50.46154439  Gyration_radius:  2.43322161875 Dipole_moment: 1.420
 S          -0.16656553552295   -1.66613415764226   -1.33317701083545
O          -0.70080846237322   -0.77290603326540   -2.33977000047346
O           1.27891944334955   -1.51872602750875   -1.18640573241290
O          -0.84497114836868   -1.56807743668993   -0.05379448803397
O          -0.42569347326063   -3.13546366604256   -1.85209310001395
H          -0.22419364556199   -3.07971522830924   -2.78056613273551
O           0.11736230400773   -1.00440546424077    2.37655496734074
H          -0.37242326326384   -1.42886072596444    1.64680365265141
H          -0.38518715011820   -0.16241045296757    2.57987317827121
O           1.29924815806514    0.97554802837636   -2.51143392446849
H           0.51129642863499    0.39906212104141   -2.57745988604785
H           2.03796761941951    0.36736728828077   -2.42319720213918
O           0.79472832726462    1.86861635949392   -0.06673950860195
H          -0.16211248050776    1.64400349876840   -0.06606635676355
H           1.06526474374144    1.76519682821540   -1.00993953075471
O          -1.70882313359185    0.90742154451775   -0.31515104131592
H          -1.88988714271970    0.96942629137863   -1.25758650243596
H          -1.50664219387968   -0.04129721789013   -0.17276722122474
O           1.90476782669721   -0.18189910952021    0.86976313499451
H           1.21695524026249   -0.55510999921612    1.62128651196781
H           1.76016847593829   -0.78953037499024    0.06321491179466
H           1.50743794769899    0.74296212075791    0.55829462649619
N          -1.14884892557906    1.32839745204868    2.59117223782663
H          -0.48886674364724    2.09566056007409    2.55204786548136
H          -1.78541809200714    1.49968079207477    3.35867835118791
H          -1.68367514476141    1.34119301930708    1.72845821033917
