    26
        -50.46954174  Gyration_radius:  2.39865739476 Dipole_moment: 4.985
 S          -1.08358361398533   -0.72897880704023   -0.90894209543680
O          -2.06899805822779   -1.77220086092559   -0.98168040793443
O          -0.95753174388846   -0.01990328596013   -2.29340167094947
O          -1.48616323295981    0.33308079147320    0.03693513620891
O           0.24510102556070   -1.23464904198394   -0.55653984777130
O           1.67096685598831   -0.14258190079423    1.39617726814069
H           1.29218507718226   -0.64600056509058    0.64460158055853
H           1.83310073792153    0.74029597956456    1.02830681403620
O          -0.67758879386852    2.63417220459049   -0.91724762252046
H          -1.08332582132283    1.83201740709065   -0.51671732754311
H          -0.85019934195792    2.55826205270423   -1.85870738659049
O           1.81807869891861    2.13895689961931   -0.22270475949364
H           2.33384449732320    2.94601030998568   -0.20173838373235
H           0.88483620105853    2.40491775009093   -0.42467281831199
O           1.62120155387591    0.27031269317644   -2.24641231965810
H           1.52613444292291   -0.52268493292547   -1.69491592411030
H           0.01486620969063    0.15807225796305   -2.42557989216965
H           1.84901369097740    0.98392017936141   -1.62230509554399
O          -1.18768546419868   -2.96809065844131    1.19731834217297
H          -1.65810142887846   -2.62729330554353    0.40125535729845
H          -0.34804843709340   -3.28810120444970    0.85637111561224
H          -0.90668176254859   -1.62386309660401    2.08104458300978
N          -0.74397151197941   -0.60488551360203    2.31325304850443
H          -1.18352329106931   -0.09646722050304    1.48596700095319
H           0.28832586941556   -0.38858205667386    2.22484797945223
H          -1.14225235873262   -0.33573608509776    3.20548728577354
