    26
        -50.46154434  Gyration_radius:  2.43332716923 Dipole_moment: 1.423
 S           0.64154851985913    2.02534359157062   -0.26288410667815
O           1.32059431667936    1.63330070397856    0.96922187663026
O           1.37646665584555    1.61147816663862   -1.43974715216139
O          -0.74514786151960    1.59681233920219   -0.26625587073104
O           0.60983358038539    3.60455858862532   -0.28451016941742
H           1.48852946928249    3.83884329756882   -0.56518848070958
O           0.88300032013081   -1.82757233828952    0.07980796540961
H           0.32564612641864   -1.48312447849754   -0.65281191651956
H           1.77670466180939   -1.45005656920519   -0.10004965510051
O          -2.10392357121606    0.11153527952607    1.49553854587032
H          -1.85923058471076    0.82338962289941    0.87450783767715
H          -2.35347398644545   -0.66917321456515    0.92043251165334
O           2.95891105494060   -0.23993940402169   -0.36496403404740
H           3.14485793556038    0.19109662900859    0.47351268681315
H           2.46991025149740    0.43009256770811   -0.88404776911667
O          -0.45195612930228   -0.49424461911493   -1.84190518531153
H          -0.66763693543907    0.31106824397523   -1.32591747268048
H           0.23677379858898   -0.20655470978371   -2.44823047932302
O           0.25899416045473   -0.39525735590634    2.04739314016526
H           0.50439739753300   -1.09370298061097    1.29717660176286
H           0.71065470568212    0.46394806349377    1.73306786919358
H          -0.80206952769087   -0.20582511263710    1.93170040698628
N          -2.44241172775609   -1.95233184024088   -0.15370174070290
H          -1.89252329495456   -2.74582713040221    0.15232807125467
H          -2.01704643835285   -1.59558097476399   -1.00351585840018
H          -3.37140287710176   -2.28227634632331   -0.38095763252426
