    26
        -50.47166706  Gyration_radius:  2.38837236062 Dipole_moment: 3.161
 S          -1.17336588892623    0.73917496368758    0.30958706565828
O          -1.16578240560527   -0.69044300732279    0.60118561748062
O           0.16504458258374    1.31669186045988    0.46265566771627
O          -1.70091414508114    1.01119423092119   -1.01845417705925
O          -2.10394966244554    1.42614099935553    1.34384990644646
H          -1.59396066871662    1.34865769970968    2.18876451566249
O          -1.15415618941782   -1.72527956024998   -1.84633451357953
H          -1.79271844465345   -1.14152905158053   -2.26256342588052
H          -1.19072538684429   -1.48895584273647   -0.89808691052555
O           1.97027930386506   -0.66035566047372    0.29574485020195
H           1.36523086665915    0.09766154919068    0.40472273047073
H           1.76615356641844   -1.24362293197030    1.03568128555705
O          -0.23588649592847    1.06851331724128    3.13389509811130
H           0.00268862517795    0.12585263786983    3.20029441766233
H           0.30428141628175    1.40769684513886    2.40667092208867
O           0.36016744421992   -1.55905092202759    2.53524341526568
H          -0.00836041459027   -2.35305540407658    2.92519812435844
H          -0.23901564388210   -1.31341947469949    1.79189343807122
O           1.36368545723083   -0.98389339187326   -2.28160334991060
H           0.48802392675244   -1.43391864983235   -2.22568305558972
H           0.97792629343941    0.42077585650925   -2.33341187575992
H           1.73971891746800   -1.03923142159529   -1.37328399005148
N           0.57832474159122    1.44937408230818   -2.18009723127418
H           0.69463760840265    2.05347451566934   -2.98671067200121
H           1.02093640703112    1.83130635507080   -1.34019188459226
H          -0.43826381107619    1.33624041537166   -1.88896596854832
