    26
        -50.46256838  Gyration_radius:  2.4138208411 Dipole_moment: 3.851
 S          -0.42442238569575    1.15132411665649   -0.34463344477344
O           0.68962104234742    0.88056964021343   -1.24220679682056
O          -1.32826964469389   -0.00527595254484   -0.30623038157969
O           0.02870724017441    1.50403002797003    0.99438461683748
O          -1.22667227009177    2.36119734852177   -0.88052437441403
H          -1.46251227301008    2.06986712173473   -1.80403197899768
O           2.72798960388086    0.80295554737290    0.46167202952581
H           2.06947681034903    0.84838279428357   -0.26380656042512
H           2.49582638973052    1.53255587411395    1.04187271242190
O           1.90221011522984   -1.40536865577719    1.61757588809491
H           1.41802179391543   -1.77905230574076    0.84017105231879
H           2.39791210905937   -0.62748934918767    1.24411064986095
O          -1.90795166903310   -1.50408931478029    1.76960057199158
H          -1.88030032292863   -0.91101625158544    0.98311569975235
H          -1.67989549409352   -2.37950638028693    1.44627433257685
O           0.49081901122064   -1.90019558280660   -0.57133510882353
H           1.07855030307150   -1.55770795476807   -1.24999324055294
H          -0.23709020841560   -1.24277135702021   -0.52472294822461
O           0.06925323201977   -0.25089251256619    2.79808410078342
H           0.92999112106651   -0.81671440718175    2.37409029461844
H           0.01795548531882    0.55872175957495    2.17045529096172
H          -0.76107746406593   -0.79412486066273    2.56531995507222
N          -1.42511605872508    1.07351728373237   -3.13610460803922
H          -0.46613946142974    0.81326276145350   -2.92542527679844
H          -1.50140746610992    1.30191614319190   -4.11884822000424
H          -2.01547954908434    0.27590446608863   -2.93886426537300
