    26
        -50.46154399  Gyration_radius:  2.43336552226 Dipole_moment: 1.440
 S          -1.05789980546043    1.60742012926472    0.93808605609934
O          -2.17538828305586    0.71177089220575    1.15148004454185
O           0.03162424496184    1.35231154310699    1.87647276192798
O          -0.58516206359570    1.62644492851853   -0.43411370835577
O          -1.58753560313989    3.06534902954120    1.23726059060939
H          -2.14102264549732    2.94566214737593    2.00218547448931
O           1.83853578958690    1.10620907422238   -1.43872481999312
H           0.97911063081910    1.53277867882033   -1.26044262456896
H           1.62900677374262    0.31772102168444   -2.01929246632090
O           0.45782175214855   -1.92667702699486    0.45318828566310
H          -0.04620667444662   -1.89098945247243    1.30069230155119
H          -0.18921247401199   -1.62679536068864   -0.22312815489448
O          -1.41095125068793   -0.78177596950364   -1.11230354463063
H          -1.15080662870564    0.15353426142618   -0.97512506609095
H          -2.22549194047639   -0.87441284020113   -0.60959222181952
O          -0.97028241342716   -1.19630114831998    2.56395094125459
H          -0.39057117586765   -0.64454738375341    3.09584590966905
H          -1.54535206828049   -0.56350122154630    2.08823406921708
O           1.93747125240054    0.07205901072586    0.81170616588252
H           1.25986878345196    0.64936207814082    1.31025923258649
H           1.42142610436509   -0.83247458942370    0.64964936274642
H           2.02622439088690    0.53456702983546   -0.16495112322459
N           1.08968610786796   -1.10620040062082   -2.71844034230337
H           1.49630917728761   -1.92430468593349   -2.28135450163382
H           1.21505256959527   -1.18869009285053   -3.71895275075087
H           0.09374543955606   -1.11851964259016   -2.52258989169135
