    26
        -50.46961825  Gyration_radius:  2.4425289031 Dipole_moment: 5.989
 S           0.35403410986103    1.70661917175366    0.84723622453042
O          -0.87720421329465    1.16899199472021    1.39946433042494
O           1.52477713307553    1.23616216471103    1.56415211019841
O           0.47114745875999    1.49540443472509   -0.58676385206635
O           0.28418194969061    3.26944605893002    1.04807030089473
H           0.10120126612657    3.32504495877364    1.97923336632043
O          -0.55606958956595   -1.47905457828900    1.04831784403556
H          -0.72161633112576   -0.53800745620839    1.24235122111423
H           0.36093409070375   -1.64187021979750    1.30109856857686
O           2.27699215178305   -1.21642802145368    1.27188811265668
H           2.97609064127148   -1.42102045488750    1.89434407802442
H           2.02200871798295   -0.27085210455907    1.44278404411678
O          -0.59281657100720   -1.90367384018062   -1.60394306711932
H           0.75774140591522   -1.33432898428240   -1.55177213341692
H          -0.76155659538558   -1.94520031033807   -0.63833212006512
O          -3.19859648477403    0.51445456278834    0.18072646954520
H          -2.44167093293858    0.86760925290689    0.68262065207109
H          -3.34008815075097   -0.37316818769319    0.51716649042291
O          -1.63753741777181    0.46278734277694   -2.03960410244821
H          -1.09730993882471   -1.10296135225798   -1.91167298950949
H          -2.37630778039839    0.52423647718053   -1.40264203948156
H          -0.92605140177703    0.99174392837485   -1.64473068008777
N           1.66796984351145   -0.73865177686231   -1.33633692292205
H           2.31584302074609   -0.72028130829789   -2.11518620864094
H           2.10728792546356   -1.10081450477805   -0.47362482381660
H           1.30661569272177    0.22381274224410   -1.11484485335901
