    26
        -50.47166717  Gyration_radius:  2.38836110196 Dipole_moment: 3.165
 S          -0.31424774149884    1.38606961007337    0.02156817037154
O           1.02339272671288    0.89304033620901    0.36180203270864
O          -0.93430448979072    0.55770419015565   -1.00717891924690
O          -1.14670751829886    1.47318583274561    1.21134956280320
O          -0.15611491866554    2.81687267882892   -0.55764102212061
H           0.54972193750613    2.70312564047233   -1.24237448740300
O           0.57397660970328   -0.39513260665067   -2.91528508616297
H          -0.06164771598895   -0.07725768107327   -2.23193966206241
H           0.06399441850118   -0.52326834259897   -3.71640503427204
O           1.80354257433286    1.91121157346330   -2.02788731804330
H           1.50645129375643    1.16216103170798   -2.57616739312997
H           2.04455599654984    1.51362065421183   -1.17963541326151
O           1.20322895480320   -1.67548869906444   -0.39012556023625
H           1.21745017772757   -0.73523495076336   -0.12887507984405
H           1.08021410777361   -1.66111526669358   -1.34619354958037
O          -2.57334234730886   -0.94609365677260    0.44624652295145
H          -2.91093188415236   -0.27324795300795    1.04213376847809
H          -2.04835615956207   -0.44734118270681   -0.21112820932911
O          -0.56446697086248   -2.34083962728332    1.49332485622669
H          -1.40761081551484   -2.01177414168303    1.10173486610657
H           0.08561311990740   -2.32672342390771    0.75394424119236
H          -0.12258974415806   -1.18876959599890    2.26857844185862
N           0.20259982111815   -0.20001986351055    2.66636952560435
H           1.10263215945515    0.02619135828651    2.23548358006135
H           0.23949609009659   -0.16363389493741    3.67949545196193
H          -0.45654968194922    0.52275797057182    2.24880573437157
