    26
        -50.46961825  Gyration_radius:  2.44254133918 Dipole_moment: 5.989
 S           1.12079651990365    0.18506426119833   -1.57004676603520
O           1.58592174681120   -0.96243993816142   -0.81056739887614
O           0.06690519633316   -0.16866714486528   -2.50285850278564
O           0.74772471560826    1.30917007695696   -0.72631308595566
O           2.35088492826396    0.67816175894635   -2.42527805388779
H           2.60353323810347   -0.12755973437779   -2.86187630427742
O           2.51002579021368   -1.12125296211782    1.72393592969838
H           1.97375146445500   -1.83724925086666    2.07158032894991
H           2.32303988044636   -1.09381860555750    0.76798531056893
O          -0.63464624529975   -1.71141262728068    0.51107880762728
H          -1.33634888597568   -1.64572408297186   -0.14816195336596
H           0.19493251340396   -1.52114381118899    0.03547880964262
O          -2.28641117216863   -0.71823211990499   -1.59394442913786
H          -1.39665957162166   -0.54066721174830   -2.00033513610379
H          -2.83986282610571   -1.05506228642834   -2.29984603882016
O          -1.18314144968596    0.25759444659902    2.25424539979535
H          -1.00966438376099   -0.61327227864174    1.83702502625016
H          -1.64419398819376    0.96980133259557    1.05795065913745
O           1.22817726938495    1.25662911694234    1.99210340589274
H           1.19147286014815    1.43121699558310    1.03810669571906
H          -0.28314921102604    0.67021097284371    2.35494594788494
H           1.82250242879308    0.48586315117677    2.08140990513778
N          -1.77943860406675    1.39504841300499    0.04275349243844
H          -2.25623191658918    0.69607126573393   -0.55099112293418
H          -0.80219495269831    1.49884613490500   -0.33164116269881
H          -2.26772532467698    2.28282411761964    0.05326023613192
