    26
        -50.46961825  Gyration_radius:  2.44251696109 Dipole_moment: 5.990
 S           1.54117819331628    0.93279623407091    0.71423146249002
O           1.97885437571442    0.12088551535172   -0.40789816971056
O           1.08395232619522    2.24423506036243    0.29345939372875
O           0.56451675458163    0.25831120254243    1.55438901731761
O           2.81129738509134    1.15395498595171    1.62283495635040
H           3.43267745862350    1.49185321413064    0.98767979062146
O          -1.98925857503018   -1.55222072990876   -0.42494599659378
H          -2.12889073672365   -0.32011874510437    0.35817794525020
H          -1.42609305705025   -1.19448592983772   -1.14429242420721
O          -1.17362975840876    2.45324797893436   -0.94176528578671
H          -0.28690827962559    2.43279855383834   -0.49268983722651
H          -1.28635381380854    3.34654765898602   -1.26941819290905
O           1.84365882704017   -2.55115696127397   -0.78852882407571
H           2.04543486987546   -1.60972726270229   -0.63834659160961
H           1.44256491550861   -2.59360366209544   -1.65939918154591
O          -0.26688053768993   -0.08686046511401   -1.87492482140540
H           0.59058905460613   -0.02013733705683   -1.41568087131230
H          -0.64240121342976    0.80200528711202   -1.86042779144592
O          -0.06127276818694   -2.39864632205492    1.13952187747754
H           0.64391935693132   -2.68305316504717    0.52543584715301
H           0.22931833506383   -1.53178262438025    1.46517446427462
H          -1.35851094873504   -2.05001639947875    0.16221491564612
N          -1.97220665995160    0.62825550290185    0.91118521954200
H          -2.65710760272101    0.77046043725919    1.64423808958014
H          -1.95810101295202    1.41016712650823    0.23527105273603
H          -1.00034691823000    0.54629082610711    1.30450394566391
