    26
        -50.46961820  Gyration_radius:  2.44247088803 Dipole_moment: 5.994
 S           1.88221652494986    0.44175817107460   -0.13675597218301
O           2.15808220887815    0.19524834246264    1.26649302457359
O           1.64666424689810   -0.78898065991269   -0.87142078949692
O           0.82419908902227    1.42228318986184   -0.32062620153203
O           3.18032932429733    1.08705936092081   -0.75815147740354
H           3.79029844990694    0.36024574492308   -0.70001510299006
O           0.23116197574203   -0.55049095207631    2.81476210334642
H           1.01646806138205   -0.28980714968544    2.26369757620764
H           0.57778844304877   -0.79802027152213    3.67303064622483
O          -0.52941403178688   -1.78593979355720    0.35701443774817
H          -0.35538561723315   -1.64754664608054    1.29608109329354
H           0.28060854600724   -1.50465662415025   -0.10709890926743
O           0.02923925200227   -1.28297011052894   -2.97934126114257
H           0.72913623448390   -1.12416989452811   -2.32020466441090
H          -0.44724153598271   -2.05600781111151   -2.66872097040917
O          -2.54938952473616   -0.10241319819253   -0.19243017336493
H          -1.98900932930228   -0.89935769772154   -0.07649485420443
H          -1.88614152923544    0.75974489860549    0.79136823734226
O          -1.19592188001958    0.99430710131578   -2.15367369716372
H          -2.21622218516009    0.31781402373832   -1.03074601255172
H          -0.43891477138422    1.30283597065813   -1.63053721545287
H          -0.85215502644739    0.23609453250949   -2.66580593139928
N          -1.16404199464430    1.32153017865690    1.41792032630447
H          -1.55164469446909    2.18380160315176    1.78253691652593
H          -0.34946967556356    1.50684263871956    0.77910224212680
H          -0.82124056065411    0.70079506246496    2.17001661927890
