    26
        -50.46961818  Gyration_radius:  2.44247616623 Dipole_moment: 5.995
 S           1.76493534574524    0.74724380141977   -0.28807909014880
O           1.81003817085742   -0.08749728886500    0.89981655584860
O           2.01281195170687   -0.01315384792058   -1.49901183313389
O           0.54716460118275    1.53673886887659   -0.37942128679810
O           2.94244518741103    1.78666717786985   -0.14408434452203
H           3.67841131903939    1.20668328973886    0.01596250270722
O           0.42691508282959    0.09204046259549    3.21457917648958
H           0.09490339066943   -0.80431526679056    3.30069274410938
H           1.04878783732783    0.07017729811839    2.46468738242689
O          -0.18946869852324   -1.83163493380522    0.45463080705520
H           0.57262262023292   -1.26004008898547    0.66237672842427
H          -0.09279014490298   -2.07029377628035   -0.47540651095251
O           0.19256030351667   -1.62581762032494   -2.36625761132016
H           0.93880439892214   -1.04050196916320   -2.06815354255765
H           0.53724250532653   -2.14949828238664   -3.09082257294683
O          -2.46801696145435   -0.41101772270763    0.53546259455835
H          -1.77001412537708   -1.08564732742565    0.67775172126674
H          -2.03494751685003    0.05703402647298   -0.78527015478200
O          -1.25716368458222    1.59795741213840    1.70972490567841
H          -0.60160907788091    1.77571752386016    1.01649109763428
H          -2.18137603999750    0.36578679180629    1.08753741437499
H          -0.74748635866014    1.18494530337300    2.43430397546559
N          -1.46803178285468    0.41344596260686   -1.66913245444850
H          -2.03347005686350    0.97416504112065   -2.29568647906285
H          -1.04916906811303   -0.40143034951130   -2.14770693809088
H          -0.67409918870880    0.97224551417082   -1.26498478727190
