    26
        -50.46961825  Gyration_radius:  2.44253784 Dipole_moment: 5.990
 S          -0.88436281682060    1.41559025334277   -0.98453445435739
O           0.19084785468944    1.57229867754275   -1.94648416328542
O          -1.62662177522630    0.18413943414494   -1.19071137554114
O          -0.41916130831554    1.57406272364767    0.38409349149342
O          -1.90345378247838    2.59365460078789   -1.23211435058935
H          -2.24127663954879    2.36445118130350   -2.09058963783478
O           0.26286888040160   -1.69316753370192   -0.81093971313581
H          -0.46079590235261   -1.06783542605239   -1.00033160546166
H           1.03583026406650   -1.34860031577927   -1.27473748560947
O           2.29213807592167    0.08653357765384   -1.73846295395899
H           2.85511929680179    0.20609916457039   -2.50449365838766
H           1.49953924883910    0.66882800936865   -1.88365509479581
O          -2.84783017651541   -1.43860064777558    0.59203464927904
H          -2.48844544309441   -2.29240955576529    0.34116277481215
H          -2.55091189164494   -0.81643798148275   -0.09667189614297
O           0.94468631369590   -1.57173224713687    1.78458556576935
H           1.65681531440670   -0.35680308734091    1.37506637001458
H           0.67031685481844   -1.87686630945281    0.89340903331475
O          -1.20871721571446   -0.18774848975518    2.35787743241404
H          -1.03333741061535    0.56892027879009    1.77595133859151
H          -1.93499641627834   -0.67459794646181    1.92111128002423
H           0.12523111752141   -1.15998572939041    2.17104925490713
N           1.97945236352167    0.59925294889794    0.91501170212132
H           2.61125481679120    1.12427294153263    1.50818580339769
H           1.08473799983559    1.12554756080504    0.74641357629013
H           2.39107238729435    0.40113393770881   -0.01222588332878
