    26
        -50.46206235  Gyration_radius:  2.40736336403 Dipole_moment: 2.089
 S          -0.24412402664556    1.72341976419447   -0.46018181286991
O           0.01291618807054    0.79863764802538   -1.55979244195599
O          -1.53718602597702    1.46993761853872    0.15124417599696
O           0.84122169596037    1.74602798342893    0.49675778150637
O          -0.32398576521632    3.16774346058822   -1.08991454279579
H          -1.16006844480545    3.13583807803611   -1.54191763723431
O          -0.31071277199106    0.41098909152108    2.42696565962627
H           0.20826544948276    0.95710833251750    1.79239191221479
H          -1.19458742865641    0.79020558962100    2.39588895085430
O           1.17549272022171   -1.37314659062313   -0.59499773474100
H           1.97282869368141   -1.04385049219530   -0.09360786180624
H           0.81359305641905   -0.57082142898117   -1.03310178663785
O          -1.52630694364857   -1.14309372078077   -2.56746053853618
H          -0.98204887044714   -0.36006769247059   -2.35359637337097
H          -0.90584630840887   -1.85917361352281   -2.71970300513111
O          -0.54444602258407   -1.79690939530898    1.15365985743983
H           0.22171754018453   -1.70987045499110    0.40786680479742
H          -0.40474702498220   -1.00291147090668    1.78052154309878
O          -2.52525665818586   -0.96062773571434   -0.10510062126171
H          -2.35496377679545   -1.15174971159259   -1.05537480860266
H          -1.45056640694910   -1.55880320039681    0.64243769723653
H          -2.31473300140256   -0.00459361354202   -0.00258317808513
N           3.01992567022205   -0.12229760792722    0.84286215878208
H           3.11474933372940   -0.35591634264958    1.82319657963839
H           2.45749540907044    0.72510576073002    0.78131856703254
H           3.94137371971139    0.08881974435949    0.48222065482503
