    26
        -50.46206147  Gyration_radius:  2.40753135109 Dipole_moment: 2.105
 S          -1.70072137719220    0.51109299137515    0.28961139663850
O          -1.30203742653351    1.57117817320829   -0.61984345766549
O          -1.52604192249577   -0.80368020916924   -0.31983802678679
O          -1.05804024742723    0.60171828396278    1.58295945873034
O          -3.24789641239833    0.69395608499502    0.53861623324482
H          -3.57507881082950    0.80548686456725   -0.34727978724362
O           0.97737666870972    2.09616298613893    0.90703201896538
H           0.54398520505570    2.72178144435029    0.31818222635995
H           0.23643379231672    1.57024323537288    1.28750524680225
O          -0.66227823849842   -1.46514389515578   -2.76395428196235
H          -1.12625347730726   -1.29480073010806   -1.92092057503640
H          -0.08418217409259   -2.21280780422746   -2.59758143168047
O           0.93321153399274   -1.64477526255405    0.17632729122305
H          -0.01255504101640   -1.43006880396519    0.01542451744354
H           1.03355764097251   -1.59768847189266    1.16770739105101
O           2.05758017841878    0.40470783141207   -0.68060625913783
H           1.65968998505143   -0.52481879158766   -0.32490275558989
H           1.76940679403365    1.10412226881786    0.00573826660055
O           0.43968994691299    0.94481843783979   -2.49614549142762
H           0.08842626091369    0.08592984127357   -2.82397153244184
H          -0.26568513130220    1.29158333962963   -1.90340371853375
H           1.47202048448979    0.63968308729232   -1.54193664074057
N           0.91666320481382   -1.13780626454543    2.78042126519738
H           0.64338909316138   -1.82914298471397    3.46677223152353
H           0.12321851346616   -0.51715467303011    2.62765725382164
H           1.66612095679058   -0.58457699927807    3.17642917063271
