    26
        -50.45821501  Gyration_radius:  2.53325102481 Dipole_moment: 2.223
 S           0.48644560375356    0.44578516861038    0.94413998255870
O           0.72258274363230    0.64193365558857   -0.49371903158566
O          -0.23166359292598    1.56498093490113    1.51994676363250
O          -0.18516695697560   -0.82934551976030    1.17539467713494
O           1.87938405310108    0.33445093118465    1.62131942418247
H           2.27378508128362    1.22554927785769    1.42341422277370
O           1.08211893903428   -2.86620718245414    0.11197874126070
H           0.78276377579356   -3.62275519659093    0.61960240412689
H           0.69120470947728   -2.07663576707237    0.55205232407321
O          -2.47870948608025   -0.85451686738796   -0.14936493284621
H          -2.80365374389019    0.04097686869213    0.10504167195390
H          -1.73663963419384   -1.01853228024801    0.47175682237678
O           0.37030347005169   -2.57682639887859   -2.40046364599519
H           1.18607929599691   -2.42284309034156   -2.88074340972863
H           0.63666504252119   -2.76600692683056   -1.46292447989040
O          -2.75884782986226    1.61990715682780    0.75044640079524
H          -3.26936189329000    1.80806363765206    1.53993875654139
H          -1.81460378591027    1.67815005615673    1.02186890038742
O          -0.92118752341519   -0.40463197937008   -2.04134353878830
H          -0.46700229495245   -1.29567672392940   -2.27091042140821
H          -1.69362683190720   -0.62684184931730   -1.33866350702843
H          -0.21913817054707    0.10389714187537   -1.45240477336482
N           2.23708023401923    2.77370045750081    0.78890049156020
H           2.76849463370734    3.62399855513019    0.92861685864993
H           1.28744745346538    2.91499676856217    1.12022205200174
H           2.17524669811437    2.58442919164166   -0.20410272337333
