    26
        -50.46206240  Gyration_radius:  2.40739889337 Dipole_moment: 2.077
 S           1.12352907755224    0.95776867575757    1.03088815010833
O           1.28430718968308    1.11981210709025   -0.41071557085272
O          -0.13491219694974    1.52111397797342    1.48832759121587
O           1.31620415872521   -0.41427472946160    1.44881903251486
O           2.26556642212501    1.80507634167531    1.71419886078409
H           1.96016688459271    2.69360897217618    1.56742085329287
O          -2.00440452037909   -0.77360776305775   -0.48771303765242
H          -1.10188219024747   -0.90648037169914   -1.05115906483040
H          -1.75981658815328   -1.00668686423911    0.47595810641220
O          -0.31611583577408    2.30564750037456   -2.19549482592721
H          -0.28863048106799    1.70916298357589   -2.94669930253387
H           0.38065349492320    1.99605702673446   -1.58407219815240
O           0.19879661438468   -0.96182865800818   -1.63123429719503
H           0.68323129123156   -0.19793486650643   -1.24620165909328
H           0.63055162781143   -1.76222820375733   -1.22104599589963
O          -1.17936562338310   -1.03401660917196    1.92116743661895
H          -1.47797018401917   -0.22923153853111    2.35609236601064
H          -0.20817768285825   -0.90595397162463    1.81786318194769
O          -2.07447731861732    1.70833406874032   -0.28650886222400
H          -1.60079823507432    2.06761077378163   -1.07082204130043
H          -2.15618931648883    0.28294643758664   -0.46150147877151
H          -1.42139880117084    1.76942363359142    0.44751834497918
N           1.34822897493245   -2.82987814464458   -0.13948750706479
H           1.54691238589640   -2.11475865996799    0.55858803031468
H           2.22357131644257   -3.26982228207522   -0.39227946183888
H           0.76241952588031   -3.52985984631469    0.29809337913736
