    26
        -50.46206261  Gyration_radius:  2.40737830278 Dipole_moment: 2.085
 S           1.61788049701481   -0.01929976224190    0.78908803362433
O           0.99986436712723   -1.11150470952059    1.52065900100422
O           1.60496419758224   -0.26985285990961   -0.64869600563308
O           1.05922005835896    1.27371381511581    1.12107386249548
O           3.13182948006851    0.01348220289088    1.23189345988757
H           3.36861569340619   -0.90613622436674    1.18110864623015
O          -1.22650429301789    0.47213365180290    2.10439609976055
H          -0.93773626245186   -0.29206144336927    2.61293923727841
H          -0.38815847116754    0.88849466215788    1.79756577315457
O           0.69876950258451   -2.38179320050086   -2.01768397759372
H           1.18438109587963   -1.65621367502911   -1.57863068416224
H           0.25784957023791   -1.98286146290591   -2.77092235924346
O          -0.65399785439034    0.66583864611558   -1.65903279384724
H          -0.69422572103918    1.62072982561293   -1.37253583039578
H           0.23411155977235    0.36054879946244   -1.36799797768721
O          -2.13546035652765   -0.54037623689983   -0.06326155247284
H          -1.91396094826637   -0.07645849164008    0.81922053934027
H          -1.57557580352501   -0.01360902953869   -0.81113490884607
O          -0.74556569006509   -2.58980748677071    0.21046262234661
H          -0.06477418046499   -2.17468568510297    0.78768266321956
H          -1.65214293916238   -1.48830263385143    0.02143617739917
H          -0.28742580734899   -2.73531664822342   -0.64831166687065
N          -0.54488139274642    3.04943254575466   -0.50086785150925
H           0.13410218501295    2.67056983277394    0.15767843297690
H          -1.34347430926531    3.36849951782012    0.03306721922353
H          -0.12770418757040    3.85483606038011   -0.94919615964846
