    26
        -50.45561714  Gyration_radius:  2.4595450496 Dipole_moment: 2.292
 S          -0.08311437706364    1.96138485676334    0.35221340591588
O           0.42872551577082    1.78185940612980   -0.98876249185978
O          -1.51863797057017    1.68253825185904    0.42386341548882
O           0.66587945791788    1.24940969002402    1.36613401935806
O           0.07264380762109    3.50036186715667    0.69180567477286
H          -0.42524254170873    3.90197200768960   -0.01230342626751
O           1.41034486438430   -2.02532439814131   -0.31482247906366
H           1.96327804904875   -2.79383058261423   -0.45855463471779
H           2.01579604830637   -1.22103795105908   -0.28963790006568
O          -0.39633268065966   -0.60738104294570   -1.85436634231272
H           0.24312290723028   -1.19794641403557   -1.42336048346177
H          -0.12754904302042    0.30214785182186   -1.61333318381176
O          -2.74917589526468   -1.35980328014521   -1.06956294281227
H          -1.85485254124512   -1.11533318028856   -1.44927073949266
H          -3.38828138207209   -0.80343879648482   -1.51819095957070
O           0.00333697342933   -1.26055201093753    1.86653648248937
H           0.35083568506190   -0.34211521195738    1.86146663213109
H           0.44880297898600   -1.70071497110493    1.11406454537837
O          -2.30803879178068   -0.52065711221541    1.27060119227386
H          -2.56402697184904   -0.95504386665144    0.36394324167557
H          -1.39268125775060   -0.94975436429038    1.57970811296702
H          -2.03739336385437    0.44845136025438    1.00217916500484
N           2.76433076290621    0.22951620340112   -0.24336401605300
H           2.56697352639857    0.71343792691306   -1.11221745843963
H           3.73307733828303    0.39643093851985   -0.00118177532924
H           2.17817892149584    0.68542281233841    0.45641292583690
