    26
        -50.45561714  Gyration_radius:  2.45954289549 Dipole_moment: 2.292
 S           1.68373649437672    0.78742054039648   -0.72314913039031
O           2.02802156093929    0.04669549966952    0.47067677092132
O           1.38088831933013   -0.10506892429609   -1.84357856149390
O           0.65190757893274    1.78221336674519   -0.51907086293236
O           2.98377469801434    1.58519877038144   -1.14916259619185
H           3.61461978459966    0.88052116459523   -1.25120976608873
O           0.12985996790508   -1.79416637495353    0.85364113196267
H          -0.57159044641189   -1.26261958401735    1.26456780342501
H           0.88517187963911   -1.18637220109197    0.72069189782471
O          -1.86987320575534    1.01834950330637   -0.73456659483225
H          -1.98923629157431    0.59827116099996    0.14160986793739
H          -1.01279170738863    1.49332782914814   -0.67043679834069
O          -0.89117429155339   -2.84797030107634   -1.28292899592507
H          -0.21476657662441   -3.40241070544602   -1.67577654618163
H          -0.51093619396502   -2.52007241435874   -0.41594755893427
O          -1.74083152467294    0.02023537192240    1.77740418057121
H          -2.39203888366469    0.02055804903015    2.47949061616427
H          -0.99773568320500    0.63938462934632    2.05765765943136
O          -0.98846090829589   -0.59794895207360   -2.42445949598413
H          -1.05306271721746   -1.55295528107622   -2.02441665191969
H          -1.49109522417026    0.05648573375870   -1.76368650861113
H           0.01367707343961   -0.34995688363677   -2.28773582399318
N           0.33794196449787    1.55004805866225    2.28836653166272
H           0.41333430263807    2.36188782297134    2.88854588919631
H           0.49000220322236    1.85093882406484    1.32532213176912
H           1.11065782696076    0.92800529704374    2.49815141094642
