    26
        -50.45325139  Gyration_radius:  2.59654483914 Dipole_moment: 1.558
 S          -0.33348589337976    0.59646610490565   -0.80887022544429
O           0.20180654432666   -0.64117270665242   -0.07652476995113
O          -1.73376297818928    0.41536575205069   -1.02049876698142
O          -0.09010176981130    1.76543141198659    0.17111645053749
O           0.46970204830980    0.85341327415856   -1.97175027643769
O           2.43360111860880   -0.74615188794882   -2.84187093762144
H           1.70404689899095   -0.11590188515399   -2.68349382214639
H           2.08506648588584   -1.42849595321381   -3.41685016867214
O           2.56104161021571    2.08479516367441   -0.50852883148010
H           2.47947167437479    2.11548801926039   -1.46649965853986
H           1.66042840703064    2.19595817913769   -0.17224790153241
O          -3.19812515141170   -0.24875043761303    1.14929068111560
H          -2.90150299098088   -0.06411958773360    0.24067638113411
H          -2.79066707335124   -1.11694945443363    1.37533086836771
O          -1.58537402780463    1.46506791361696    2.15124964312360
H          -0.69444463727367    1.64134241169176    1.00987517524560
H          -2.07484183809702    2.27676495053734    2.30194820297252
H          -2.26830280745737    0.77390254609816    1.84648716393752
O           2.67974337143109   -0.54862940489838   -0.18497530522778
H           1.26667088387534   -0.63144598005540   -0.07485644934258
H           2.82581030045046   -0.80170428120609   -1.12077308448877
H           2.84144751992508    0.42505014883871   -0.16204760950676
N          -1.60942487321412   -2.41272864124058    1.57054139784756
H          -1.80603454909583   -3.32455070720967    1.17811958969230
H          -1.24276956995531   -2.54748091765707    2.50422104984304
H          -0.87999870339118   -1.98096404097177    1.01093121357443
