    26
        -50.46206238  Gyration_radius:  2.40737533539 Dipole_moment: 2.077
 S          -1.46576165408982    0.56283810669347    0.88178050624354
O          -2.09316714958184    0.17160267962263   -0.36862900989141
O          -0.74627069878638   -0.55391944450770    1.48638082827172
O          -0.63450307732742    1.74067730249016    0.75531920621023
O          -2.63713610010355    0.93784133335523    1.86989406575315
H          -3.23564909959120    0.20962905530905    1.74414014404541
O          -0.50513487944830   -3.08813601425884    0.66614709276414
H          -0.67622359280466   -2.22945387229456    1.10038052649350
H           0.41778833407834   -3.28804232222676    0.83677680311517
O          -0.23252519536342    1.66129874146510   -1.82674980620263
H          -0.34684027554892    1.81847536992845   -0.86107750576425
H          -1.11217111982810    1.41749466986289   -2.13134233648536
O           1.06099808084499   -0.54722482708047   -1.85144533288500
H           1.43511856372398   -0.60116746805120   -0.84799013081461
H           0.65292518347729    0.38469669159115   -1.93954550109998
O           1.72709959181118   -0.58617376742835    0.54683909946645
H           0.85047981272336   -0.59369533300308    0.99174287420209
H           2.08841869687906    0.32654103231207    0.72496964912410
O          -1.03536302177746   -1.87709808944696   -1.64581249724443
H          -0.88956016142026   -2.52076695194693   -0.91572168471633
H          -1.57218425392929   -1.15867043139630   -1.23998279078159
H           0.21337937942968   -1.19636725059382   -1.86142738320160
N           2.24038947131217    1.98689476752758    0.93628707427268
H           1.23740162354744    2.14986978012889    1.01148053274068
H           2.58186462285120    2.53657925530049    0.15790358316431
H           2.67662690891740    2.33627699664790    1.77968196322349
