    26
        -50.46489347  Gyration_radius:  2.55405778485 Dipole_moment: 4.641
 S          -0.51051594417800   -0.32054045356396    0.56506262174409
O          -0.38737249032623   -0.96446083833388    1.94620058929531
O           0.29710053168407   -1.07649917880239   -0.39252555881786
O          -1.90981438867757   -0.30673129104637    0.18899985724052
O          -0.00997954542458    1.06981517646822    0.66055326372362
O           2.87491854185456   -1.22312651295090    0.14287459694222
H           1.93814499673568   -1.13618651803808   -0.14047471790007
H           3.14765576413643   -2.10708157743828   -0.10851102861122
O          -2.80642838782498   -1.24631597489741   -2.10640335374719
H          -3.02401794918253   -2.17529966294872   -2.01943825964474
H          -2.55538729656912   -0.94437505158139   -1.20378242817587
O           1.57714554136391    1.87701113990856    2.65384527171672
H           0.96642703102645    2.13784236656523    3.34529537413125
H           1.03008230230428    1.67791091973380    1.86694784245644
O          -0.42680986458660   -0.24935157616667   -2.78247507935164
H           0.00280875402577   -0.64452893760053   -1.98870484811277
H          -1.28691500348303   -0.71737601301986   -2.83855424413089
H          -0.87230753496991    1.02726528564547   -2.15431342833402
O           2.02843122892282   -0.77158593676206    2.63553737786900
H           2.51288557979261   -0.94543597198372    1.79793021673398
H           2.08174635240917    0.19801877390513    2.77247998830305
H           0.60087493103201   -0.93536709154768    2.25870886430905
N          -1.24052957085458    1.80363474025913   -1.46587095246868
H          -0.68382788665406    1.63848393244300   -0.55604261540306
H          -2.21262249665691    1.58870592777722   -1.24884859829354
H          -1.13169319590044    2.74557435399997   -1.82849073147601
