    26
        -50.45561714  Gyration_radius:  2.45953932609 Dipole_moment: 2.292
 S           1.98024341912982   -0.12212817326296    0.20404581880282
O           1.62416754953110   -0.23490136151933    1.61971562012987
O           1.54864790425776   -1.27979524347747   -0.54825392527526
O           1.56077829565340    1.13951662998255   -0.36887723727190
O           3.56326700135080   -0.11955899890487    0.15850251362677
H           3.76577007981330   -0.97082961538580    0.53170395369992
O          -1.74902667837748   -1.18535514473922    2.46716747701067
H          -1.34997338125204   -1.85086769680413    3.03027166459961
H          -1.53144794141834   -1.45243049622849    1.52638726110278
O          -1.02355100189163   -1.70746856984028    0.03428137626446
H          -1.45969935438665   -1.05099736857767   -0.53339635026146
H          -0.06685027174197   -1.63720620185615   -0.15904665456608
O          -1.94165227838316    0.39880626469852   -1.50368638325464
H          -1.11099110115510    0.34344841896353   -2.07027098922691
H          -2.68246600162313    0.52987129667917   -2.09615312209080
O          -0.81943718815578    2.07662417407726    0.29870182915954
H           0.09772428592153    1.92233334658718   -0.01645152027277
H          -1.38100207438889    1.53112162690482   -0.28906494156727
O          -0.39069216912627    0.94295928833182    2.48412001960394
H          -1.02928635547486    0.12869541561123    2.55792875902000
H           0.51292613454846    0.51154177741777    2.19808029685522
H          -0.67699578691218    1.49293121115598    1.62790654652912
N           0.36333897231464    0.18586255306969   -2.75443934942739
H           0.64631527222339    0.54532165831071   -3.65759921812558
H           0.63099753502030   -0.79079359683168   -2.70404701108024
H           0.91889513455629    0.65329882566264   -2.03752640399226
