    26
        -50.45561714  Gyration_radius:  2.45954287817 Dipole_moment: 2.292
 S          -1.87557442500717   -0.66683410565651   -0.12447644364544
O          -1.30529219259436   -1.46439371766687   -1.21181341507266
O          -1.35507263222551   -1.07117816358700    1.16316081031877
O          -1.77714833931191    0.75537283318852   -0.37661735142653
O          -3.42296387609145   -1.00365079459615   -0.11104785487994
H          -3.41293827561121   -1.93728222678276    0.07111248873825
O           0.46605123575104    1.67804749682593   -1.42828052420500
H           1.02630541801581    1.70004491770707   -0.62576605547437
H          -0.44390602207254    1.51974737915855   -1.09477122706544
O           1.30866420553332   -1.14532692971946    0.96960435124632
H           1.53314160181016   -0.20482812229901    1.06184829769083
H           0.33727626173301   -1.20159794204285    1.07365510751231
O           2.27020165718855   -1.91887513175594   -1.30964262486275
H           2.08280521182506   -2.85550915789474   -1.39241776234566
H           1.97139449328230   -1.65724029882648   -0.38985465658485
O           1.60132236053779    1.60345561862043    1.02703082294514
H           2.21339748301037    2.20887090195120    1.44635706915690
H           0.72156410836429    1.68417907900232    1.51034241014137
O           0.56731537449191   -0.54355988874614   -2.56813347239643
H           1.34605595077975   -1.08715913552690   -2.15061076706193
H          -0.27534637953578   -0.93599832939625   -2.09868562975270
H           0.62371284832245    0.43844911067387   -2.18080520602038
N          -0.78300851432293    1.60086587928661    2.13953642553705
H          -0.86019621136438    0.73230177351928    2.65691044886194
H          -1.30478598415535    1.44595880773794    1.27648398351705
H          -1.25297532835938    2.32614015682459    2.66688077510087
