    26
        -50.45561714  Gyration_radius:  2.45954408576 Dipole_moment: 2.292
 S           0.37232679442714    1.95880236576425    0.04989377906982
O           0.52503697620266    1.68789644778712    1.48059566163474
O           1.42266774691830    1.33632593336017   -0.72582051401117
O          -0.96249250261533    1.66224940242299   -0.42576142648355
O           0.55836664294099    3.52305549594823   -0.11298540139190
H           1.44847821797267    3.64254484832346    0.20065221186617
O           1.57040129726860   -1.22386823258558    0.02386348269721
H           0.83356094002161   -1.61207131373488   -0.47593746455846
H           1.60485649344430   -0.28113001510473   -0.23621544124766
O           1.10960969422312   -1.71257313499194    2.52722146321563
H           1.85071840413007   -1.36256221651921    3.02474959592450
H           1.34474448460828   -1.59406558944211    1.56056093797704
O          -2.13897582571166   -0.53197459757132    0.46335240582551
H          -1.89400668355326    0.33538510717254    0.07350068535367
H          -1.70114245156557   -1.19559826988468   -0.10787555486567
O          -0.71892446890408   -1.97386353768278   -1.33310952874925
H          -0.97339076987133   -2.73087797596668   -1.86147690275152
H          -0.59734634848841   -1.19677431337777   -1.96194388910803
O          -0.83423402903674   -0.10133020410947    2.55074818477574
H          -1.46455937803423   -0.37397688718422    1.74706616674660
H          -0.10015867338465   -0.83003176994489    2.63055256669941
H          -0.31454955072072    0.72004545840219    2.17692659814423
N          -0.30374271551787    0.19680993636189   -2.76086662097071
H          -0.65726241584914    0.85347332310714   -2.06449606285307
H          -0.67933368079821    0.46076545679121   -3.66322030971899
H           0.69935180190998    0.34334425261139   -2.77997461321320
