    26
        -50.46648691  Gyration_radius:  2.43208208919 Dipole_moment: 3.437
 S           0.66583887073066   -1.14646669603946   -1.18165265476852
O           1.64753890826487   -0.09556457306872   -1.28247262801755
O           0.87235515027495   -1.98271540328422    0.00108502308321
O          -0.70743246652868   -0.67578874699676   -1.25012843497346
O           0.88177846854457   -2.07669840554595   -2.44435975346921
H           1.76361427422966   -1.83635710911608   -2.70901738971857
O          -1.61467530578808    0.08989420937696    1.12996405301772
H          -1.89358657255477   -0.78324280702163    1.45674615003833
H          -1.38261523167414   -0.09703581549928    0.19427051218464
O           1.92341121040455    1.87560060070131    0.53163477752500
H           1.45284429784740    0.76610099318576    1.42661004989503
H           1.99993199605544    1.33930971772458   -0.27958306845451
O          -1.39416546378887   -2.60066921174680    1.33061373721548
H          -0.55898789864758   -2.48501293261795    0.83522753981524
H          -1.91501661386886   -3.22566811304505    0.82487053658241
O          -0.94692876484212    1.77320487290182   -2.27154082368332
H          -0.78761313939363    0.85176868444184   -1.98641313762257
H          -1.80324228354629    1.77883486435075   -2.70267732588549
O          -0.58979153731322    2.71572921718263    0.25345379104153
H           1.08555028972108    2.38630530032135    0.42424107769976
H          -0.70690471716309    2.55282303046479   -0.70310002007782
H          -1.16148558900152    2.08024204134517    0.69693260773254
N           0.93818508955711   -0.09381883145177    1.86233466959873
H          -0.09879694495841    0.08771482224990    1.78682046051035
H           1.22097940058107   -0.28284307332164    2.81758362819183
H           1.10921456285951   -0.91564663549182    1.23855665254214
