    26
        -50.45561713  Gyration_radius:  2.45954164232 Dipole_moment: 2.292
 S           1.45103650542518    0.89350675704536   -1.03635549387877
O           1.59194505327113    1.29726150239231    0.34551068537697
O           1.88051822786089   -0.49121925941028   -1.24057056940929
O           0.13842207057548    1.14883102647806   -1.59113885236407
O           2.46052475165457    1.78353117779569   -1.87112198300148
H           3.28824291456595    1.57909902994883   -1.44918024485579
O           0.64207630194122   -3.01876338294606    1.01286059842108
H           0.56142775932160   -2.10825495395095    1.42299973104130
H           1.55881431671735   -3.27770120442571    1.12139171566011
O           0.43241351774127   -0.57684098177754    1.85601642690151
H          -0.50462446068960   -0.33399195752764    1.77589818423112
H           0.92979836533880    0.10068741381224    1.35486311911825
O          -1.72734717886801   -0.69590883120020   -1.26690324576987
H          -1.16385032463723    0.06340653413354   -1.53189605202384
H          -1.99115757855456   -0.50167675591148   -0.34436238564610
O          -2.14286485353102    0.22236050878841    1.24447456331220
H          -1.80317095706189    1.14693363299194    1.03505981945964
H          -2.95491137074615    0.32302843209806    1.74191413266226
O           0.18157691157840   -2.30569284561956   -1.36507592612093
H           0.92436009503836   -1.57777645919303   -1.41864927669768
H           0.31382069047174   -2.71015172484343   -0.41893389214916
H          -0.71050158566209   -1.73882007316047   -1.34494700288506
N          -1.02871266972171    2.51707288989330    0.59974140828280
H          -0.21345743491686    2.62014584219339    1.19368626656493
H          -1.44895963415748    3.43005909419796    0.47795395228096
H          -0.66541946297582    2.21087454824506   -0.30323567848509
