    26
        -50.45561713  Gyration_radius:  2.45954302977 Dipole_moment: 2.292
 S          -0.02559804499759    1.77563748725534    0.90801164574149
O           0.25441127002026    2.00744345820554   -0.49208888078714
O          -1.42840402956979    1.41740054131883    1.12580786002926
O           0.88377047801100    0.84427770949170    1.54170117038815
O           0.18276249411760    3.16188447535758    1.64486114602573
H          -0.42690070302059    3.72075393712336    1.17484795164996
O           1.34043308173621   -1.78191664658306   -1.10373525460511
H           1.94040590408684   -0.98857135004265   -0.94650763794653
H           1.86252483082452   -2.45032495798100   -1.54831544937242
O          -0.70076967467094   -0.07806798224515   -1.86202996344306
H           0.00270843083441   -0.73397725079706   -1.72660401770105
H          -0.39662935235117    0.73856700946071   -1.41683767440846
O          -2.88766470624311   -1.13663478700328   -0.95939338541717
H          -2.07001696812079   -0.75105693205054   -1.39127412394251
H          -3.59373229878959   -0.50855651956469   -1.12134722090847
O           0.31800238744735   -1.73436459958333    1.40133277374910
H           0.65844171801064   -0.83584487951578    1.60401205893252
H           0.63160237099021   -1.92170067903326    0.49306104048004
O          -2.06160303287765   -0.97138168653425    1.42081281520199
H          -1.84113771640496    0.04620438688717    1.40156413303194
H          -2.46537684078218   -1.14429739183250    0.48094691125121
H          -1.10678102132952   -1.42455698102261    1.44316303976230
N           2.68405720118795    0.42505941566693   -0.60712197494890
H           2.22297126700997    0.63536455805099    0.27847029185402
H           2.34305470127083    1.12419038188352   -1.25748494197105
H           3.67946826364544    0.56446927306691   -0.48585230260264
