    26
        -50.46648814  Gyration_radius:  2.43205129715 Dipole_moment: 3.481
 S          -1.15796783843986   -0.14020985903150   -1.33860100282864
O          -1.13105512490746   -1.56072660414562   -0.98818344813982
O          -1.94799328238832    0.63210742179876   -0.41260325285988
O           0.18808653144358    0.37169520391138   -1.53230008148996
O          -1.88256940052226   -0.02784824043519   -2.74160840597519
H          -2.76105898782063    0.23006841652907   -2.48237407589437
O           1.87315282315200   -0.53697490714979    0.31401185299716
H           2.09737370683056   -1.38366608021677   -0.10979878870626
H           1.34626378891018   -0.08406894621133   -0.37993072991765
O           1.30229445659012   -2.71011691566902   -1.19651945681683
H           0.38682917608527   -2.36612572700093   -1.19567301802769
H           1.54241654555401   -2.81559837545866   -2.11783610996304
O          -1.35821311870957    0.90099632489341    2.20092922956407
H          -0.82112639004948   -0.47919160293284    1.95517469332323
H          -1.75624634895204    1.02376720745679    1.31882330164143
O           0.48782716667220    2.90030406311472   -0.74701070549073
H           1.16349215314076    3.26066393701286   -1.32385543732034
H           0.28005012756925    2.00836861976107   -1.08867868021243
O           1.05635309746238    1.92284254125467    1.72557830430060
H          -0.52164486083907    1.42454119036822    2.18049934120761
H           1.62756872908424    1.20284179864781    1.43805328471339
H           0.85482891241188    2.43744554591031    0.91948960975618
N          -0.34102535974794   -1.36734822818305    1.53698325377647
H           0.64114505576252   -1.09533993905614    1.26269162441124
H          -0.81684157894612   -1.58921553799716    0.63242573361601
H          -0.35193998934696   -2.15921130716974    2.17031297433297
