    26
        -50.46648885  Gyration_radius:  2.43227463768 Dipole_moment: 3.524
 S           1.53887640663187   -0.08588520853194    0.88164416542557
O           1.99945103875759    0.47820921936160   -0.36241517645745
O           0.90737150565189    0.91788092678866    1.73948321891383
O           0.67918300356863   -1.24582135692619    0.71948728231752
O           2.82921478974886   -0.59371909508281    1.64530778560402
H           3.51136553170447   -0.06958727349513    1.23859676674078
O           0.85627953932166   -2.37092936344191   -1.68999113741628
H           0.68383380675768   -3.30228822083195   -1.54159381029998
H           0.90962339663088   -1.95594843680059   -0.80658998387258
O           0.37590207985256    1.57720847757458   -2.20876586007480
H           1.15605266080604    1.19574502179943   -1.76448720650680
H          -0.38494391808021    1.91123959493398   -0.95865985615325
O          -1.86217528233886   -0.55345337758069    0.34722543709146
H          -0.96045519564053   -0.93697552423459    0.41038352383622
H          -2.11536212509855   -0.45272862324578    1.28131550565540
O          -1.36998294680865    0.09213076773355    2.93000556826206
H          -0.50503256984109    0.40636747522263    2.59915832128489
H          -1.17268177857564   -0.53668782367035    3.62520943991606
O          -1.07696734470188   -0.63773162002187   -2.49664758712042
H          -0.14178221884446    0.80085705747366   -2.53066990009459
H          -0.37195586278843   -1.30509848969410   -2.38393211470177
H          -1.64057033502883   -0.72218903690009   -1.72040866933684
N          -0.86451572308177    1.89380744012055    0.02311790598985
H          -0.11791317638692    1.73816348464608    0.73879911431358
H          -1.46224633737873    1.02507366768352    0.06693956446876
H          -1.40056894483830    2.73236033712157    0.21748769221173
