    26
        -50.45259868  Gyration_radius:  2.48643150689 Dipole_moment: 1.289
 S          -0.45169452214954    1.66796652057360   -0.61126533183093
O          -0.55108659048223    0.58450800945529   -1.58320302457114
O          -1.49522484738131    1.53140484814564    0.40772815952391
O           0.86345814735648    1.84928295916148   -0.06491973226628
O          -0.79690676244777    2.99151977714272   -1.40299837962183
H          -1.64865185783421    2.79597634375804   -1.77873897330154
O           0.76821155841746   -0.38478920441780    1.43885286631464
H           0.80636196984893    0.52569554093798    1.10531162915998
H           0.99983311326112   -0.93910296300821    0.66056304785332
O           1.24604002961698   -1.37634236384029   -0.99354098225121
H           2.15393691063916   -1.01103768234130   -1.03448547286303
H           0.70071850196063   -0.66292388666981   -1.36803770186276
O          -1.65174197437810   -1.77843450926339   -1.13126214774316
H          -1.33566564872357   -0.92618088468203   -1.50269410049740
H          -0.84542555817773   -2.27633972600220   -0.95176402719820
O          -1.25011551152083   -1.21351134618679    2.83027297920401
H          -1.34614362700080   -0.61502870134554    3.57343118288364
H          -0.40254676567302   -0.95158689157354    2.36994485430770
O          -2.67947925460980   -0.60253513457106    0.85465839094773
H          -2.18623038993976   -0.92212787960009    1.71636191522513
H          -2.24789838051957    0.33377828489739    0.65655959862724
H          -2.34817630078684   -1.20033733970851    0.07603029203141
N           3.31892983673147    0.39369897206081   -0.87623999497133
H           3.97263984003618    0.34677619324547   -0.10408178076697
H           2.59374427605403    1.06012661947673   -0.61515977449664
H           3.81311381771656    0.77954444435762   -1.67132350183738
