    26
        -50.46648865  Gyration_radius:  2.43220704259 Dipole_moment: 3.499
 S           0.71083655662233    0.95710910076397   -1.31618291163987
O          -0.15599253763386    0.12998448024478   -2.15655487375889
O          -0.02463723472687    1.99039523632138   -0.63096855511510
O           1.52294516114788    0.13224896856164   -0.43801778786634
O           1.71824203192048    1.69777351137769   -2.28707087382736
H           1.30835393214701    2.55231058097081   -2.37202022579266
O           1.97386461828772    1.23731741463325    1.94452409192320
H           1.83683447467994    0.93665789136479    1.02454488942711
H           2.83225315118161    0.90507300222423    2.21268186615086
O           0.34296135728516   -2.51826206509105   -2.00328606609957
H           1.16428734955394   -2.72819783701801   -2.44931698012997
H           0.18522128752302   -1.56686916096251   -2.16542078454599
O           0.12485229381682   -1.87001425430624    0.61612125307755
H           0.21499866581348   -2.50194852463386   -0.11835592169416
H           0.73037062475907   -1.14454653281310    0.34913247282921
O          -1.95609487027815    1.51000952353642    1.18309166966361
H          -2.13078361994694    0.31375146736203    0.29328475098943
H          -1.28217986483547    1.95631455710543    0.63703677534416
O          -0.35048747416853    0.09265617978444    2.76827560455326
H           0.48146569596958    0.58786292617334    2.63481091723563
H          -1.45433676810082    1.10495620339872    1.93042035193024
H          -0.21124588481856   -0.76510368878036    2.35330789860127
N          -1.97711933410671   -0.55408622600696   -0.35281446493135
H          -2.84250635030917   -1.01772493324117   -0.60662133750009
H          -1.31281771195269   -1.20508974440025    0.14595458816648
H          -1.44928554983063   -0.23257807655936   -1.19655631699733
