    26
        -50.45561715  Gyration_radius:  2.45953166467 Dipole_moment: 2.294
 S           1.83057271306086    0.49190672244250   -0.62051772025018
O           0.89232969459334    0.97070118153511   -1.61192550032489
O           1.80098587289491    1.31276348609958    0.59149212875322
O           1.70689132185674   -0.92098036146668   -0.32998230541410
O           3.27631606722768    0.68788490002393   -1.23649729476702
H           3.28234460688534    1.62244157934514   -1.41423580845322
O          -2.01417539857064   -1.42860511529607   -0.30466020536441
H          -2.79377952314935   -1.96641013747003   -0.44603533950892
H          -1.40118324024303   -1.57732071096724   -1.08965283068682
O          -0.02989089098127   -1.66121307405363    1.52062389220645
H           0.69072266776469   -1.57808774737279    0.85871127580228
H          -0.85632414522052   -1.61428439247444    0.99794585754529
O          -1.47024833107695    1.28043158472034   -0.40329938861699
H          -1.79851092529466    0.36639527041939   -0.38836877882709
H          -0.61396613298790    1.25117158817413   -0.87606829443202
O          -1.40018641589893    2.08554165584773    2.05936699130585
H          -1.10999339228186    2.99932646725544    2.04994404854686
H          -1.50568618928180    1.81892516758386    1.09939556660095
O           0.52247637797061    0.53386109236580    2.57968756851109
H           0.23056497204182   -0.42994811091314    2.25814942345286
H           1.15026742303784    0.85929400349427    1.81519860923598
H          -0.30355317657606    1.15489842450125    2.48860933064566
N          -0.25602095642927   -1.61582774564877   -2.25313019911030
H          -0.30524537000587   -0.74613486424037   -2.77202194590364
H          -0.09542309046903   -2.36825670607109   -2.91119129174918
H           0.57071547113943   -1.52847415779819   -1.66153777922881
