    26
        -50.45821493  Gyration_radius:  2.5332201944 Dipole_moment: 2.225
 S           0.63201679578746    0.13112106421594    0.95383233583528
O           0.53740274966282    0.89365186375898   -0.29970743366020
O          -0.04860166079194    0.80947157250509    2.03850346465076
O           0.14722904275903   -1.23094075988084    0.75302999793431
O           2.14134995201921    0.01062539565362    1.29857601949877
H           2.39974010674110    0.96345909394420    1.41782357694425
O          -2.67538112493326    0.72183689308994    1.76599289053395
H          -3.02219078330947    0.50825164593325    2.63401168320481
H          -1.70469040917943    0.83233820158997    1.88517307235997
O           1.34491456402979   -2.46609479740402   -1.22809316022605
H           1.23369837208789   -3.39758767402938   -1.02897004678936
H           0.98403372528014   -1.98076692850124   -0.45085826141103
O           0.09105842962536   -1.37409560239691   -3.26247415604223
H           0.76828570678236   -0.91234806154951   -3.76033729357063
H           0.56690242314446   -1.85599276281803   -2.53646682530910
O          -2.36304221600014   -1.14271517210832   -0.08790135938931
H          -2.70859791430987   -0.47883025520893    0.55402079482278
H          -1.49395434845915   -1.40068552773324    0.28822755472220
O          -1.29229975139122    0.24674771553884   -1.85734415318617
H          -0.53203038803185    0.60635474999877   -1.23207125949839
H          -0.81580105389407   -0.39983186012144   -2.49601769961902
H          -1.87324730339254   -0.35299843752833   -1.19206696065311
N           2.08403946952051    2.60576285872130    1.47813243523200
H           1.83030855130771    2.79934634606364    0.51691613299591
H           2.55112431427729    3.41686962046810    1.86407386676861
H           1.21773275066634    2.44705080779622    1.98399478384892
