    26
        -50.46186008  Gyration_radius:  2.40633388358 Dipole_moment: 3.266
 S           1.01693665722801   -1.40743241057974    0.45164323490130
O           0.76683806217580   -1.79487996410691   -0.92581847313586
O           1.95045478624110   -0.29371883775885    0.53023232518090
O          -0.20005640463615   -1.15148576601756    1.19923481016081
O           1.70401026785705   -2.64884808568358    1.14234396399799
H           2.29605865436785   -2.94008261444254    0.45794734217841
O          -1.08788228220439    1.33380452090702    1.02511918579838
H          -0.80733829654328    0.41121085885451    1.21268832496888
H          -0.28310832899912    1.87981511100960    1.25055612686519
O           1.41221676237715    0.77340403475175   -1.79134848469831
H           1.70209328363641    0.44688912500357   -0.90697015300679
H           1.40654049574304   -0.01468740287769   -2.34343229770192
O          -1.64553574941462   -1.14570282097475   -1.78222583081985
H          -2.23000470614383   -1.41453211497352   -1.03760710837102
H          -0.76217908071212   -1.51543090877954   -1.55496596450880
O          -2.75754190480171   -1.65499511300104    0.58534351453116
H          -1.84753056039770   -1.63748783895096    0.93842640178376
H          -3.22297658904444   -0.93587851202087    1.01781316646474
O          -1.08179864671995    1.25924264004550   -1.46117809053671
H          -0.08213802612500    1.21070340482825   -1.65463253580774
H          -1.42412511755107    0.26769873632622   -1.66846576117210
H          -1.15895696716725    1.36777993609781   -0.39567168994978
N           1.30981836791946    2.38842627190528    1.41825771281006
H           1.62171094744293    2.70425754106330    2.32751672600192
H           1.66896965098386    3.03269791008920    0.72485608885346
H           1.73552476448856    1.47923226930230    1.24033746520814
