    26
        -50.46186009  Gyration_radius:  2.40634210366 Dipole_moment: 3.266
 S          -0.05067110188027    1.49787197071426    0.98629921013989
O           0.16466597361014    2.00340361161228   -0.36131803399753
O          -1.43199730294189    1.09665715178461    1.18882590719038
O           0.89947484791721    0.45848286056406    1.33612131771726
O           0.21449579576320    2.69004335244744    1.98562917322506
H          -0.59613658587235    3.18097715994020    1.91084091865004
O           1.46026588788315   -1.21723368181433   -0.63180544174043
H           1.69674088509772   -0.60996793803220   -1.38805681338993
H           1.37699522540627   -0.61343471156052    0.13862304017926
O          -1.72930904601629    0.65081725209634   -1.54519948818659
H          -1.00033528946025    1.21754496233853   -1.19857483687598
H          -2.44994879582816    0.78630805815310   -0.92210925651350
O           0.54555311618399   -1.85681575041724    2.63430188636082
H           0.76135542935503   -0.95017741249975    2.34357774101548
H           1.20046326700298   -2.42801848178149    2.22741941577789
O          -1.75899199558362   -1.51961376705332    1.33948068952274
H          -1.02774580675276   -1.80530487532761    1.93276081347006
H          -1.75419809611403   -0.53669329154572    1.38945625503350
O          -0.94529274793095   -1.72806265214682   -1.00553623206838
H           0.11465383133308   -1.60293889210328   -0.88745455713260
H          -1.33739606087017   -1.75935644610341   -0.01127677272399
H          -1.28260348080182   -0.83620915747715   -1.36600642313806
N           1.75862395004876    0.72081142897101   -2.41247161897961
H           1.30720511639697    1.37388704580403   -1.77275124256250
H           1.19954535508052    0.68652275715587   -3.25576205142353
H           2.66458763897261    1.10049943628031   -2.65501358954894
