    26
        -50.46186014  Gyration_radius:  2.40633950215 Dipole_moment: 3.265
 S           1.69261824816607   -0.49304254870903   -0.33325329925753
O           1.04334281367644   -1.47446999604471   -1.18490386727333
O           1.62332413264544    0.84126552392287   -0.91014426039531
O           1.20960810282089   -0.52040915539170    1.03475237710218
O           3.21560458706887   -0.90139056781787   -0.26979051057524
H           3.37978993255366   -1.15302487780583   -1.17171248721658
O          -0.90541705006920    1.00458865987491    1.47788571938461
H          -0.63257735269277    1.88799258790292    1.10136081995436
H          -0.08419451485970    0.46697399120485    1.43753189478594
O          -1.24294354714662   -2.36809700327846   -0.21083292291331
H          -0.37239108032262   -2.18164096495758   -0.63038351598673
H          -1.03490034741718   -2.53735047314168    0.73594607261465
O          -0.57321225218437    0.51131953362199   -2.28293246425446
H          -0.39701820227790   -0.34635571143875   -2.68200969547725
H           0.26620717533680    0.73838341868805   -1.81758698395660
O          -0.34268118027259   -2.30080335749073    2.29639975954920
H           0.37827681758166   -1.74175331609067    1.94887980375156
H          -0.82258279333612   -1.75460198828637    2.92258241788584
O          -2.17908728943555   -0.06539064131598   -0.37150814774537
H          -1.89868186617795   -1.09376816071039   -0.28736548032666
H          -1.72370587451379    0.42144097302873    0.47033845832261
H          -1.65565454798375    0.25787117663731   -1.18430606563392
N           0.10284440706931    3.06559650576073    0.15446125668803
H           0.58308197300054    3.82603846051144    0.61800723918040
H          -0.43797690116080    3.45687409915828   -0.60665590989742
H           0.80832662990830    2.45375384218015   -0.25476021830967
