    26
        -50.46186001  Gyration_radius:  2.40632089536 Dipole_moment: 3.267
 S           0.47103788415442    0.80849110855213    1.53080692884628
O           0.23969584702713    1.92817282099734    0.63027783251058
O          -0.77920189331565    0.23741293466030    2.00066287039639
O           1.36453683376125   -0.17852461607533    0.95378952147366
O           1.20635024125114    1.37382840630520    2.80747774369214
H           0.48189790002322    1.76396328098558    3.28360443807327
O          -1.31210693466487   -2.13253587678890    0.96413156652666
H          -0.45176007496725   -2.60587334588425    1.02803728380161
H          -1.18299996774746   -1.30516406489597    1.48125327519324
O           1.25310780301130   -2.85377681753553    0.98437304415099
H           1.65200839714106   -3.09063166220848    0.14437821725887
H           1.44644787096011   -1.90596895115062    1.11648356259682
O           0.99303585869335   -0.61327321427730   -1.62836669959092
H           1.00554856924689    0.30565206656998   -2.01828181985539
H           1.25907371720768   -0.47622490570285   -0.69265267098624
O          -2.08820774384845    1.16807196263298   -0.27589748546355
H          -1.22646859819024    1.55405720892542    0.00899830574147
H          -2.51699291204125    0.91478578971095    0.54741872842411
O          -1.42569216234062   -1.08778519967040   -1.29431030104531
H          -1.77125891031151   -0.16825857177396   -1.02199738840815
H          -0.38743898269780   -0.94229127023686   -1.52715406838958
H          -1.43405072465391   -1.63865331681363   -0.37800369900163
N           0.83815775040424    1.96743565981341   -2.20407699556340
H           0.01284283240195    2.30197269699820   -2.68556344383008
H           1.63149440211166    2.49683291833590   -2.54194670868687
H           0.72094300739156    2.17828494850523   -1.21344205785941
