    26
        -50.45790524  Gyration_radius:  2.42240070689 Dipole_moment: 4.343
 S          -1.16859882841878   -0.74509354420621    1.18445363971452
O          -0.72883449613848   -2.03111561749766    0.68556517114496
O          -0.12926818000909   -0.03836023089999    1.91697588349423
O          -1.73639685698760    0.09767837219314    0.14068880162750
O          -2.32981458602461   -1.06732569865639    2.20623275302071
H          -2.29951272931096   -2.01686883493706    2.17589996581067
O          -2.00101398246639   -0.60609793067370   -2.42345076078723
H          -1.81257702073560    0.22282054020119   -2.86907521920931
H          -2.09098557817338   -0.38465503244034   -1.47515924203280
O           0.09969583559536    1.57127425054262   -1.05250030021667
H          -0.65212293633830    1.08534998486365   -0.64481341608960
H           0.44543130725338    2.12379877432254   -0.30782118912890
O           1.72984606298354   -0.28877029067753   -1.44915391950327
H           1.08591150798927    0.54321113664289   -1.35559893968921
H           2.05137971291072   -0.48364090836144   -0.51067053141382
O           2.22185661492325   -0.71557376290363    1.03443228667069
H           2.83633623183594   -0.19030827205675    1.54948911427835
H           1.32375118733014   -0.55770626090427    1.41690891661697
O           0.09646124688042   -2.11303931524275   -1.80261520719507
H          -0.68707689876636   -1.68885410458497   -2.22535280415914
H           1.07161833145140   -1.12886285684893   -1.68729427794340
H          -0.17820756741899   -2.25237538015361   -0.86496564441844
N           0.73745464031773    2.64601708515699    1.31493721629545
H           0.07638628694859    3.36620722318545    1.57784626481835
H           1.62679806830870    2.88114833114110    1.73729273872573
H           0.41148260605966    1.77114235279437    1.72774871957000
