    26
        -50.45821491  Gyration_radius:  2.53320516965 Dipole_moment: 2.226
 S           0.77569732761924    0.85108371764449   -0.00660702865055
O           1.21626631070312    1.25394782442815   -1.32703702712758
O          -0.69147400593542    0.83144080661569    0.08707330332500
O           1.32384112390659   -0.44007117166060    0.39714537230412
O           1.28287257606655    1.88528259205387    1.03487162651800
H           0.87364937477424    2.72791647804331    0.70111347799800
O           0.51225673852859   -1.20210120814265    2.77315667565818
H           1.18656060964946   -1.81669438664319    3.06858341124678
H           0.84153526889043   -0.83137259510857    1.92226864435152
O           0.32332867983887   -2.33275415557437   -1.16274390996144
H           0.86704340584330   -1.79651708173824   -0.54617702963641
H           0.44280535787204   -1.88336564064125   -2.03222705169234
O           0.76900235380247   -0.62165403902384   -3.13366578038200
H           0.90568822612720    0.12990482925617   -2.51307398794561
H           1.56595186155034   -0.66986453894943   -3.66460611683764
O          -1.90087459662535   -2.05057815884368    2.17304646902048
H          -0.98508316113041   -1.79009270079334    2.45450657237256
H          -2.49885616630888   -1.48620977254043    2.66664663181530
O          -1.79833067289900   -1.36625536803653   -0.28385673409602
H          -1.40736042584692   -0.40115433840933   -0.16549689461007
H          -0.97575995702261   -1.89738309189163   -0.70939868872284
H          -1.91121769941101   -1.71730009560098    0.67378637871621
N          -0.02971178559054    3.62925214630452   -0.38144882600800
H          -0.11831873963477    4.61289819008243   -0.60417087940076
H          -0.95450752892894    3.23767200109840   -0.25023752517784
H           0.38499552416479    3.14396976807336   -1.17145111307017
