    26
        -50.45790441  Gyration_radius:  2.42222141482 Dipole_moment: 4.361
 S          -0.14948506707624   -0.62310064366894    1.70679051769903
O           1.23724352986412   -0.26716087040720    1.44798955710612
O          -0.98495418372735    0.53051186435200    1.96622491557292
O          -0.67672676340876   -1.47269495188409    0.64765005491494
O          -0.17883050972819   -1.47004368183872    3.04022333184744
H          -0.68143495584311   -0.87670881959204    3.58667180545555
O          -2.95279960339110   -1.02960237953283   -0.68071739017128
H          -2.71570600861472   -1.31690692103236   -1.56526827283603
H          -2.22255854224371   -1.32272418996720   -0.10008349296227
O          -0.33276423875708    1.70417557222063   -1.47053702450050
H          -0.12056507418691    0.69139549607234   -1.67992183995857
H           0.36018534316466    1.98606708154608   -0.79017425035646
O           1.38059336528802    2.10824142861885    0.39836216195705
H           2.31487398243287    2.24370850707834    0.23222738991081
H           1.30137575675110    1.25536189319045    0.89254729098922
O           0.18098359551940   -0.73340363077792   -1.73676198567591
H          -0.16187218202577   -1.09671733158603   -0.88945578963602
H           1.16047218032395   -0.84723888541873   -1.65452951317986
O          -2.35232309412598    1.48174112090074   -0.05928260078941
H          -1.91346239861171    1.25153116420406    0.79424482610431
H          -1.27029081146171    1.68483627099290   -0.90727345143034
H          -2.78383997793842    0.64220118208042   -0.34514763986264
N           2.70245537293173   -1.07217814640231   -0.90241712899294
H           2.95927276708714   -2.05129689993182   -0.91699918157111
H           2.35265572505313   -0.86556208624774    0.03410968969214
H           3.54750178272391   -0.53443213296955   -1.04847194932625
