    26
        -50.46123414  Gyration_radius:  2.41006735468 Dipole_moment: 2.654
 S           1.45674330337206   -0.28039491693548    1.02481021335042
O           1.34148262971924    1.01142679025204    0.36868383768612
O           0.33269723934589   -0.52910101286212    1.91233739038008
O           1.67659095338968   -1.36754789863788    0.08893640058901
O           2.74261998196672   -0.22427453551300    1.93959510180527
H           2.47379382554238    0.38669969116443    2.61648388063415
O          -0.63790016631571   -2.56871125757351    0.24605869715416
H           0.28187642805631   -2.22531542090548    0.16483756766458
H          -0.82924657933937   -2.51308565459121    1.18697707680170
O           1.50832847303304   -1.48851658152426   -2.58945861163435
H           1.77713260154750   -1.48911430220516   -1.65173410337467
H           1.14152030950833   -2.35777372342662   -2.76168518969814
O          -0.03430316632153    0.57168873634465   -1.85677159186496
H           0.52033176714152    0.81798879073067   -1.08446659668536
H           0.49889801558413   -0.09178639924276   -2.34520515746978
O          -1.94565908748178    0.65328715781572    1.32709644952075
H          -1.66345154763871    1.57199042093708    1.04464228559875
H          -1.12998082976218    0.23664173161162    1.69181699397557
O          -1.96407112964612   -0.62741522628825   -0.78122533909719
H          -1.22295621800281   -0.11277863667798   -1.31497484422778
H          -1.52601974492661   -1.48999942652440   -0.46331635924438
H          -2.08116417647645   -0.04093976138397    0.14551710848272
N          -0.86418092045796    2.87855264757246    0.39426730815482
H           0.06489161987613    2.46119149038226    0.41261298680783
H          -0.81944240832491    3.77475470147164    0.86123340961508
H          -1.09853117338536    3.04253258600952   -0.57706892491977
