    26
        -50.45821493  Gyration_radius:  2.53320374237 Dipole_moment: 2.225
 S           0.44942610676427   -0.88900400275591   -0.57794550676305
O           0.27480967609675   -2.17560775491685    0.06553792190064
O          -0.82555508381858   -0.16454928046575   -0.68450937251604
O           1.44642897537526   -0.05882813239736    0.09090227112083
O           0.96691052111118   -1.11164059061493   -2.02504845167901
H           0.24598563363146   -1.67491100776682   -2.41475049051125
O          -0.36970842574328    3.52021283747859   -0.10608469261726
H          -0.89561129543368    3.74049395165825   -0.87720708664117
H           0.47247332008403    3.12575438142925   -0.45374748439516
O           0.55374487245882    0.59979190019934    2.49627052815736
H           0.23371050132025   -0.28824816505813    2.78120220008068
H           1.09955927061297    0.40786033414150    1.70343793497358
O          -0.21239590767837   -1.93005604154153    2.65091871950343
H          -0.09076723076626   -2.07488020889823    1.68505586508447
H           0.33195498520747   -2.58979513516160    3.08425314463692
O           1.75464092381378    2.28844792464686   -1.04054533823205
H           2.63452492844671    2.56495283650861   -0.77779043221279
H           1.65098031091998    1.36864093868493   -0.70426416539387
O          -1.31771955182745    1.48668924812272    1.11097037601753
H          -1.20198790314933    0.77569406359043    0.34979838464094
H          -0.57678749748373    1.18837443064698    1.81935867434713
H          -0.98945711904150    2.36520916338802    0.69444096726049
N          -1.19146263232700   -2.52898788787380   -2.34566753847537
H          -0.95383058172116   -2.90596080714966   -1.43298022851130
H          -1.62798764139279   -3.25366100857756   -2.90182416941454
H          -1.86187914544873   -1.78599196732248   -2.18978204035503
