    26
        -50.46123412  Gyration_radius:  2.41007021122 Dipole_moment: 2.656
 S           0.46458236359848    0.12235025570213   -1.73795663530663
O          -0.90951978340127   -0.35137705527600   -1.75969919322636
O           0.60236734319299    1.31943203024997   -0.92517425152005
O           1.40518837759717   -0.91886902178205   -1.36751104931492
O           0.82058118068466    0.52493248271512   -3.22277776481936
H           0.08608071765438    1.08192481043755   -3.45519034602509
O           3.03502664410188   -1.19227651178067    0.75051210583852
H           2.62744964142872   -1.08791441414654   -0.12964114974056
H           3.00852168245946   -2.13072879019667    0.94651839212795
O          -0.23327346111652   -2.63366542613362   -0.27233931797848
H          -0.99476092411661   -2.58583227146599   -0.85792880117189
H           0.45080619478080   -2.08283271480244   -0.71856011254622
O          -2.41215446523544    0.22217322096649    0.32464313989603
H          -1.97582094870584    0.02992490138950   -0.53826678513973
H          -2.16232259397194    1.16887106941512    0.53620564927015
O           1.08937509527264    0.46708814930694    1.53960361656922
H           0.96330008774189    0.87224219659312    0.65377752283521
H           1.90687369902864   -0.06909933885146    1.45464430496496
O          -0.85841175188805   -1.11393178927961    1.69803765012438
H          -0.60346855882871   -1.83147289824158    1.02196469414976
H          -0.04058121044755   -0.45936685163077    1.73907071323467
H          -1.63840126860277   -0.53394284643574    1.17672186107797
N          -1.34925223560537    2.60042434534154    0.77838078922611
H          -0.60376717039052    2.41992751378523    0.10801999139374
H          -0.91949873705009    2.66193998628235    1.69319147734087
H          -1.75891992818857    3.50007896782738    0.56375350874155
