    26
        -50.46400446  Gyration_radius:  2.43676997193 Dipole_moment: 6.308
 S          -1.25098344157541   -1.70179030317398    0.78739190052831
O          -1.66377970303112   -0.38427802551394    0.29790894050529
O          -0.20905757131753   -2.28553566269836   -0.02403680559540
O          -0.95317251152630   -1.70239092963588    2.20148366142030
O          -2.54584674522990   -2.60678851134703    0.59687699047405
H          -2.25827090620305   -3.42349145124570    0.99032282012724
O          -0.92076919882328    1.80923169029649    1.43450530321492
H          -1.25169002342319    0.94420095096241    1.06403726476791
H          -1.67005055142840    2.20420026118931    1.88194139379963
O           1.10180938590932   -0.09952690477883    1.91404519331301
H           0.45660759285106   -0.82532229781948    2.04898055312760
H           0.58799634426506    0.70607127606946    2.05645939245358
O          -0.97911413201680    0.39371608552172   -2.12854605565013
H          -1.41027287052519    0.02961670043467   -1.32305713723284
H          -0.19306134897643    1.43512370376090   -1.51172509755250
O           2.43155722250448    0.36126056814787   -0.28285721571852
H           1.93944398697520    0.05826142816508    0.52959966424948
H           3.36149372626387    0.31305899237626   -0.05845560854946
O           1.03512243920111   -1.27336623062933   -2.12880435836082
H           1.71129780791023   -0.77528130252761   -1.64856216464120
H           0.60128911345105   -1.81115472356331   -1.43398180005314
H          -0.27158089317644   -0.27375003405565   -2.34218619678068
N           0.44833714362045    2.10672136563323   -0.88830061666977
H          -0.04710046552808    2.21080438413102    0.01900456895699
H           0.61672935833122    3.00177617508603   -1.33178815184977
H           1.33306622153806    1.58863280525058   -0.72025643825116
