    26
        -50.46400450  Gyration_radius:  2.43660010696 Dipole_moment: 6.308
 S           1.24396255470878   -0.99390748850098    1.59521533363147
O           1.64378750525276   -0.05063096650365    0.54821552513339
O          -0.01565127684611   -0.63552757919627    2.20343803995643
O           1.30601521304072   -2.36991184365596    1.15842448584240
O           2.36167786177417   -0.82291961771951    2.71491888640282
H           2.10768489694965   -1.49882024268974    3.33400467971143
O           1.40782218801543   -0.58745378901074   -1.96428403007849
H           1.55668314690216   -0.44027581351542   -0.98909436106207
H           2.27730936456841   -0.72386415003563   -2.34250395770155
O           0.45763451665234    2.29928726214122    0.37311357445605
H          -0.05305648420978    1.88342556399715   -0.91049194672942
H           1.03789780862798    1.52848175250551    0.56436701473171
O          -2.38283227575030   -0.13021099291065   -0.65485079109594
H          -1.73591133283156   -0.87525045821425   -0.51243267370971
H          -3.22941901648814   -0.54687818043453   -0.81962499929989
O          -0.60107369122701   -2.03602443373704   -0.61002281513976
H          -0.01180839618948   -2.25020468875214    0.14368746811093
H           0.00330076207250   -1.81649840296569   -1.33094457331175
O          -1.63992654466855    1.37291291708828    1.62921415817955
H          -0.33909789183926    2.14676605118482    0.95090827192452
H          -2.12847472675254    0.93962771925906    0.91533486776775
H          -1.10032999952591    0.65205578199531    2.01585220819953
N          -0.45692863397935    1.37763372972667   -1.82304491248609
H          -0.64558323173470    2.02935227072771   -2.57523858248664
H          -1.31723441173984    0.87964349585118   -1.52117696022426
H           0.25355208513896    0.66919212338869   -2.09298393071136
