    26
        -50.46961818  Gyration_radius:  2.44258204729 Dipole_moment: 5.992
 S           1.36321548030602    1.37308395311409    0.11453450909519
O           1.20995614328679    0.77646657919684    1.42997635695789
O           2.31897260985899    0.65077880160076   -0.70453453324547
O           0.09532981260028    1.56782876539677   -0.57047658034411
O           1.95195248410416    2.81747185857369    0.34884566934584
H           2.71188769691801    2.61930648600192    0.88451951410467
O           0.28197300528720   -1.67681804167258    0.83110188763439
H           0.65240442503503   -0.82180440617226    1.11797727060161
H           0.81807444391420   -1.95627811912296    0.07885227180944
O           1.66553014763922   -1.65518105319755   -1.66467016137541
H           2.42861619178167   -2.06955341084854   -2.06967203539695
H           1.98176569616805   -0.78404717976307   -1.30499531514058
O          -2.17403503750916   -1.33546107819960   -0.20253604379530
H          -1.43644389300128   -0.88303250917250   -1.38684316534229
H          -1.40685975401206   -1.63744887684525    0.32921315709418
O          -0.95790053498437    0.62415902623553    3.03665125651339
H          -0.96891883582719   -0.31302460760353    3.24305229057023
H          -0.12055434253521    0.77862112618789    2.56287465664604
O          -2.29901849822614    1.11422115911764    0.72775625572829
H          -1.52345743308831    1.46713810960320    0.26317503608973
H          -2.41641671678217   -0.45263504690931    0.18753951389048
H          -2.01609360076116    1.03501605190933    1.65991081879149
N          -0.72193404456242   -0.42586337046251   -2.10104687480512
H          -0.39782052818114    0.45301511627709   -1.62297962738628
H          -1.14355526255519   -0.22393572990857   -3.00000536947883
H           0.10333035512686   -1.04202359333603   -2.18822076856121
