    26
        -50.46139538  Gyration_radius:  2.47767192783 Dipole_moment: 5.241
 S           1.25043785854984    0.24732109167719    1.05492124512381
O           0.40143209708773   -0.96849261587014    1.04650300809804
O           0.93000798279245    1.04028446624696   -0.13519068855276
O           1.11544636785859    0.98023600279133    2.28098720841161
O           2.71682769452961   -0.24018266028426    0.92653884575431
H           2.84990655461799   -0.37304366092583   -0.04751410910319
O           2.50561831773444   -0.43756242315569   -1.65351233153654
H           1.96245966815748   -1.24308429141327   -1.70293599074676
H           1.88950260698177    0.28610602243578   -1.44120008277814
O          -1.96769309069257   -0.39242326940247    0.39431597877855
H          -1.06379679414287   -0.67708932129722    0.78057709069702
H          -1.91381242895076   -0.70388571286609   -0.62168074303315
O           0.74132053614296   -2.45015681188558   -1.06252739341497
H           0.62223901333103   -1.93674856889451   -0.22128013400115
H           1.03536516325821   -3.32342050446779   -0.79901905470247
O          -0.93644399771609    2.57102451723365    2.75613623303517
H          -0.17988625045438    1.94571049050204    2.70493035940985
H          -0.57088469055229    3.39851811695624    3.07319071238412
O          -1.47123882690420    2.03307087302816    0.22957535479236
H          -1.43361797629350    2.37136556695443    1.15647605996973
H          -0.53305654957517    1.84525598542542   -0.00558204147671
H          -1.89537970294821    0.67681441977293    0.35249091010440
N          -1.60589408232399   -1.09194212516949   -2.03097237354733
H          -0.79703736324366   -1.70531748822009   -1.93317951207352
H          -1.32411424907406   -0.27402664235475   -2.55637353764902
H          -2.32770786816817   -1.57833144683008   -2.54567501394267
