    26
        -50.46139541  Gyration_radius:  2.47764903923 Dipole_moment: 5.235
 S          -0.55572998356409   -1.36478275392838    0.75096436743384
O          -0.96575981172040    0.01072496997461    1.12385042939949
O           0.21563760932305   -1.29351917112160   -0.49320935852216
O           0.14561309823800   -2.01729995786181    1.81915195607870
O          -1.86155607830236   -2.14934974013912    0.46180341560854
H          -2.08702717819905   -1.91815543636656   -0.47618036105065
O          -1.98252032235657   -1.20442387548213   -1.95348668483707
H          -2.26700484941514   -0.29626995726092   -1.75165884915422
H          -1.02484714901550   -1.22836609405202   -1.77822748368741
O           2.69167406747814   -1.54904046155971    2.33518851324909
H           3.11439163192265   -2.40565103000934    2.41567152914075
H           1.72771707731591   -1.73041722024147    2.27259027877961
O           0.94926073451424    1.62309524945316    0.80337718978540
H           0.63566148845808    2.02987557359082   -0.12863314620544
H           0.17342314923430    1.01151894032828    1.07074674032946
O          -2.40938777745743    1.18976919477398   -0.68890106502863
H          -3.26161106806228    1.42571569990137   -0.31930058953765
H          -1.90425076856942    0.75413352649064    0.04625408380954
O           2.51224956484585   -0.16881668317991    0.09426635617301
H           1.73178002795312    0.93595432959592    0.54704449432170
H           2.78701206290170   -0.63965559915676    0.91758720851728
H           1.76657746942758   -0.70491383483091   -0.26262922767026
N           0.08853650702726    2.38991738553559   -1.47103771588195
H          -0.89411140619181    2.12592490782994   -1.40177669800797
H           0.52391354825997    1.81472562033876   -2.18112732252295
H           0.15035836595197    3.35930641737637   -1.75232805051852
