    26
        -50.46139526  Gyration_radius:  2.4778339153 Dipole_moment: 5.245
 S           0.99299439214881   -0.97457814009064    0.89436425006641
O           1.28602459682103   -0.37424153417689   -0.41006723092352
O          -0.26674947435853   -0.38303860759666    1.40652555129643
O           0.93083937912936   -2.40761572341443    0.86066462171577
O           2.11095334795714   -0.54866037880427    1.88086843512016
H           2.37283781447929    0.36041455071721    1.58203659789400
O          -0.30766085681826   -3.72420223021146   -1.06291488039739
H           0.30113999749824   -4.40065785488029   -1.36412821536160
H           0.10731891772288   -3.32561653959233   -0.26609773558542
O           2.37149194173636    1.75489726209465    0.71234447963278
H           2.08693778213798    1.17462850559775   -0.01613484226445
H           1.56325705404618    2.18614673685374    1.03965733695833
O          -1.98673169177487   -0.22643158119403   -0.43367530938767
H          -1.86252633765854    0.80689886387890   -0.65497097454868
H          -1.38572369948036   -0.37077322018108    0.38201572620974
O          -0.15483953293020    2.20010297518148    1.67763350226216
H          -0.31557112216074    2.43496056133668    2.59279516950985
H          -0.21725451630579    1.21025857009461    1.63498503941461
O          -0.49485737964772   -1.30465165391076   -2.09750700421229
H           0.30368220870263   -0.96398102564671   -1.63164852924183
H          -0.50769021303826   -2.27140369127857   -1.89691403518557
H          -1.46503779321549   -0.73497820558369   -1.22065591097126
N          -1.46563503364817    2.22831400550819   -0.88660409824476
H          -0.76737268120860    2.27311003306700   -1.61801749013440
H          -1.02603362522014    2.49493146372228   -0.00585535702398
H          -2.20379346494212    2.88616686850612   -1.09869909659858
