    26
        -50.46400443  Gyration_radius:  2.43618262394 Dipole_moment: 6.304
 S          -1.43526340934645    1.73222268968891    0.12186955081068
O          -0.35064376935369    2.13741074555499   -0.74090284810370
O          -1.70867898415407    0.29586043101008    0.03357374285152
O          -1.29302579146488    2.18933158984187    1.48522539893994
O          -2.75633084722488    2.41132086991548   -0.44918091638087
H          -2.56653318912639    3.33254960930809   -0.30832908054858
O           0.88473558868305    0.77881255443953    1.86811208760484
H           0.41411512451511    0.00867538487150    2.21264337212807
H           0.18214066715181    1.44638614870404    1.72094482703978
O          -0.94350366868287   -1.37088674119110    1.84817994337819
H          -1.70677887270273   -1.68060452171800    2.33713199480393
H          -1.29127829650955   -0.69424186161861    1.20315991992408
O          -0.72464931576772   -1.10913987569476   -1.97093864757987
H           0.06039516389835   -1.83576492109258   -1.00243502626349
H          -1.26027832749292   -0.56136901209491   -1.35414733186666
O           2.46620185321445   -0.19659315681755    0.03552946818603
H           3.36197408307451    0.00560764177594    0.30772478997027
H           1.87220551002338    0.29046432201015    0.67081598400204
O           1.16477703457326    0.66228110834252   -2.33085404922978
H           0.62772278743169    1.34064115189518   -1.87071388530848
H           1.82021516219617    0.39821965475337   -1.67004536673755
H          -0.04468092746719   -0.47351622372628   -2.32490375713087
N           0.67689672896410   -2.22373530656539   -0.15344543990716
H           0.09778391302226   -2.09616622334165    0.69961638523666
H           1.50279499531035   -1.59721043235413   -0.08482590626007
H           0.94968677722933   -3.19055561588786   -0.28380519955533
