    26
        -50.46400393  Gyration_radius:  2.43662071776 Dipole_moment: 6.299
 S           1.08877390786591    0.74558726095972    1.82776648454313
O           0.04940340068386   -0.27994183137517    1.71012884836423
O           2.05955690753500    0.66716954270681    0.76163324658245
O           0.54411578661637    2.07017692201255    2.01924052240485
O           1.85134187922575    0.36843343649150    3.17242231976672
H           2.47805774256032    1.08102923734818    3.23549173230066
O           0.04460245371093    0.60752563970721   -2.39788341934799
H           0.09483740544148    1.18641153595200   -3.15937342572667
H          -0.06325937025406    1.20595521554808   -1.60768678676720
O          -2.32453649248238    0.24791963450027    0.84820992744461
H          -2.94458471509686    0.20118640811343    1.57692279016832
H          -1.42446180988457    0.09068784224317    1.24813340104694
O           0.40640117573709   -2.33729494598574    0.09815697468526
H          -0.70634234502445   -1.84904083651221   -0.68006058203950
H           0.36204456898097   -1.69951140545103    0.84562402768358
O          -0.57235637580355    2.10566095683656   -0.35287688540434
H          -0.03813264886310    2.20753340509479    0.46294867185481
H          -1.41587630192660    1.75094876058486   -0.04300887902341
O           2.13241476078217   -0.97234275099372   -1.31425779153943
H           1.17394150638072   -2.01235243786508   -0.44678815806368
H           1.55646015455556   -0.46115618544061   -1.89987362509145
H           2.29021949035737   -0.37133437044138   -0.55658463504651
N          -1.50196591274700   -1.28804884592756   -1.23112114570035
H          -2.01922726048648   -0.74723372602649   -0.51049925410303
H          -2.11457817450966   -1.90086515604390   -1.75581246041367
H          -1.00684975338356   -0.61710330595345   -1.85085188859218
