    26
        -50.46139522  Gyration_radius:  2.47819002276 Dipole_moment: 5.249
 S           1.47240816273150   -0.24608423570626   -0.71801923800505
O           1.22530376888420    0.75159443091094    0.35096781430142
O           0.27871097077115   -1.08634908958369   -0.84772280867399
O           1.86446913790033    0.38022900207931   -1.94793377561824
O           2.63788355066901   -1.14081952668838   -0.22255106136305
H           2.20244580836657   -1.81432237940554    0.36130600800956
O           0.69918017778385   -0.31545300154191    2.66252911912005
H           0.94572520357904    0.12665865007428    1.80859349980328
H           1.35133008010716   -0.03103578744857    3.30464245258914
O          -1.09727408623028    1.71783918862095    0.14598740836350
H          -0.10903230917447    1.46128822920778    0.21543910590231
H          -1.56010775570724    1.13635359843672    0.90724432579543
O           1.01753649205134   -2.60204615045235    1.18452394615849
H           0.84127185068242   -1.98198739576388    1.91309889124801
H           0.45639412109108   -2.30915816765593    0.44443903472499
O           0.11775829868828    1.50070324559956   -3.57872070425162
H           0.31238167085689    1.16696506348512   -4.45602219408228
H           0.84733821148125    1.18177806292891   -3.00240987455047
O          -1.60127149621289    0.41016560386846   -1.90145869292131
H          -1.13303288549207    0.86626964644516   -2.64161154328487
H          -0.98556297094696   -0.30593988421711   -1.62053189495718
H          -1.40994192708643    1.25919765233754   -0.77188260706877
N          -2.04438308341777    0.15748754673891    1.92686524809542
H          -2.41279072374729   -0.66412319052529    1.46454612670364
H          -2.72484081503449    0.48744878404750    2.59823136721299
H          -1.19189945260094   -0.10665987578254    2.42045003674468
