    26
        -50.46220848  Gyration_radius:  2.42240642435 Dipole_moment: 2.964
 S           0.91844055457088    0.81198882208340    0.27317221718783
O           0.19361745969878    0.86161351981799   -1.00495716483235
O          -0.02091939633175    0.84726452149316    1.38559152025869
O           1.78081503153022   -0.36067884604532    0.32901970567384
O           1.83196646817120    2.05587001063825    0.34445620827188
H           1.17796862361263    2.80757377852105    0.43472167721444
O           0.16236111873156   -2.03742428759041    1.58514266079427
H          -0.22207881426774   -1.51636922359866    2.29453058093611
H           0.84338122394760   -1.45062146632321    1.19498769213041
O           2.07274801079345   -2.38618311105205   -1.31735097300935
H           1.96169942375631   -3.14459076852868   -0.73838438266529
H           2.19484320753546   -1.61091929236921   -0.72570481941464
O          -1.65490663670877   -2.14209828498754   -0.33590906865014
H          -2.11828630782300   -1.29088128387701   -0.12806818195353
H          -1.02608291344463   -2.27493854283590    0.41733559502796
O          -2.30721236287406    0.36741326191449    0.14863866164063
H          -1.53588814265241    0.54624556667380    0.72949154300868
H          -2.06996983876010    0.77740181945765   -0.68874230178454
O          -0.13066809346187   -1.36174116181417   -2.12146360613697
H           0.74938834832124   -1.84799402523397   -1.95458747620214
H          -0.85267378617065   -1.78344666255030   -1.40248374743213
H           0.02455623241685   -0.40226737509132   -1.76374854890098
N          -0.24302550474190    3.59233323864208    0.69583081993636
H          -0.31896798119122    4.43439524838690    1.25122525615003
H          -0.60112390818038    2.80717397497020    1.23187882020995
H          -0.80998203643799    3.70088054930774   -0.13462268743665
