    26
        -50.46139540  Gyration_radius:  2.4778455406 Dipole_moment: 5.251
 S          -1.38657416251240    0.89261590778630   -0.13257255171414
O          -1.36274661198781   -0.58106228862063    0.03106484625888
O          -0.02623091967089    1.39974264008989    0.06787613009834
O          -1.95843255226598    1.27743346729510   -1.39095921257176
O          -2.27825696037414    1.44681352055867    1.00865599327247
H          -1.67172238327088    1.50412108677432    1.79153907560798
O          -0.30440651202746    1.36564125495717    2.69353580731593
H          -0.26528008720047    0.40480073394304    2.84072826574177
H           0.14378797536720    1.52272784505533    1.84333890939020
O          -0.51615476406657   -1.34758452258407    2.36634409935706
H          -1.19720609493674   -1.86130582819558    2.80309539187948
H          -0.89118386086537   -1.09155750979889    1.48349226375987
O          -0.59629613572255    1.18851239974089   -3.65007550387689
H          -0.72918050139977    2.03434790015463   -4.08109567077774
H          -1.20559128585148    1.18169108359907   -2.87882387988057
O           0.64087296526487   -1.57116134627114   -1.14197237420921
H          -0.25055292951449   -1.25472351009133   -0.75167911284522
H           1.25762755799789   -1.69846616019527   -0.28340918378057
O           1.38902381250765    0.63227101608676   -2.00394717978154
H           0.97914516141588    1.09394821326010   -1.23605244103336
H           1.02766676626811   -0.69462547297682   -1.62329445518440
H           0.80059129494033    0.84590785954209   -2.76743010282809
N           2.00039058402866   -1.69449038436943    1.01124532025778
H           1.25610911732816   -1.66861307176034    1.70804420229278
H           2.54172493804833   -0.84291268726182    1.09077157811058
H           2.60287558849969   -2.48407214674772    1.20157979513877
