    26
        -50.46139543  Gyration_radius:  2.47764386366 Dipole_moment: 5.243
 S           1.49343973888594   -0.50503382737387    0.50087182377616
O           0.86394678446224   -0.76136293204045   -0.79759440506512
O           0.66636727701453    0.48544804376910    1.23158386680900
O           1.70551146564647   -1.69397427471651    1.27558346107575
O           2.86479053947323    0.17185621535525    0.24425453242495
H           2.72406468669856    0.71551697648710   -0.57348631278463
O          -0.12392759012156   -3.58435585211453    1.49217145315073
H           0.58439399147487   -2.90438805990506    1.53659036949684
H           0.32116587541239   -4.41467690510400    1.31495726065176
O          -1.78631332745332   -0.05999247853828    0.99279775751331
H          -2.01545607557289    0.65144808872099    0.23506135645496
H          -0.81334481396452    0.14890788876640    1.23121942258559
O           1.95089367739400    1.40153500677472   -1.85188470689974
H           1.40949458027395    2.07853524352982   -1.41043137354318
H           1.42200689787292    0.58398913735642   -1.83292130122166
O           0.40258189543140    2.74299107456275   -0.03070852956134
H           0.75101870370630    3.45582288053217    0.50685181009316
H           0.52307911212012    1.91455631730440    0.50275274964424
O          -1.33695832310768   -2.11127185798452   -0.32923694934788
H          -1.72069062066469   -0.99544545865095    0.47284299870034
H          -0.50104560286709   -1.72544926160226   -0.68001015951816
H          -1.04358507541983   -2.79839322637047    0.31638041317999
N          -2.10877840864252    1.62755962837280   -0.89116582915230
H          -1.30909524783631    2.24110281215695   -0.73576006612371
H          -2.94809962257005    2.18864848954355   -0.94904524790227
H          -1.97546050762715    1.14642634119530   -1.77167438445101
