    26
        -50.45970200  Gyration_radius:  2.46829055068 Dipole_moment: 1.801
 S           1.03131130135735    0.77378413193223    0.22091454111830
O           1.29776766105984    0.76947583788829   -1.20182202738014
O          -0.33558283997824    1.22354877501117    0.51212587561764
O           1.27221501199023   -0.53005973871384    0.83558317597696
O           1.99989857227892    1.76589210933178    0.92118721379489
H           1.77050074013808    2.61262625971163    0.45414915505513
O           0.57857066793095   -2.88463807397005   -0.17572121000854
H           0.97576107120216   -2.02571618284435    0.08028159932173
H           0.58599532848808   -3.42124442084345    0.61994224833089
O          -0.69009811273479   -0.23658786607814   -2.57859977920060
H          -0.25871236896467   -0.66937763141671   -3.31817326669967
H           0.03488288812925    0.18781788118739   -2.06076749134716
O          -1.76419175773586   -1.93655859566537   -0.89653707045554
H          -0.93193798139260   -2.43259354040750   -0.67640751084338
H          -1.48935318100799   -1.28926978342171   -1.60025775987335
O          -0.26870705143367   -1.49365786814507    2.70384897684182
H          -0.11789251899424   -1.03695823603415    3.53279277276222
H           0.40953660310724   -1.14861907569397    2.07034226483020
O          -2.04211143456878   -0.51550699332492    1.09208976638908
H          -1.52135012041256   -0.99176371212113    1.80900311529119
H          -1.42468878063559    0.27267499910461    0.83973241460249
H          -2.00312684137039   -1.18882644146221    0.17523265698570
N           0.90693118383683    3.52396023849670   -0.64637135195348
H           0.87442848831848    4.49081914118158   -0.94506312735900
H          -0.01284388187542    3.24465373120661   -0.32329961100861
H           1.12279734326989    2.93612504508920   -1.44420558078197
