    26
        -50.45970199  Gyration_radius:  2.46842607259 Dipole_moment: 1.805
 S           1.11710995103853    0.47840423293262    0.48343586445666
O           1.53554898247810    0.78404400439840   -0.86812101774449
O          -0.17681697130300    1.09565963769780    0.79996960822582
O           1.06224157516360   -0.95992770229827    0.73653459175941
O           2.15670540264859    1.05270055047084    1.48459531932998
H           2.12860554015994    2.01813043005557    1.25037573690476
O           0.09169882792511   -2.80375412800454   -0.90874071818289
H          -0.08180147859996   -3.51327846279978   -0.28621791338778
H           0.59956439722684   -2.13084710240139   -0.40852773629265
O          -0.42950898424175    0.56058710448570   -2.58499307427316
H           0.00136494617163    0.25401072247599   -3.38543534969288
H           0.29520075186655    0.69259554873266   -1.92831075319474
O          -1.95877839453377   -1.26705663497053   -1.49240277602039
H          -1.50053138078661   -0.52917109900876   -1.97748015377632
H          -1.25359914900711   -1.95486820791398   -1.36263559035150
O          -0.81632081480835   -2.04766372292556    2.17892459655104
H          -0.68192625439694   -1.85370708504557    3.10779084456911
H          -0.02369065532813   -1.69145161970904    1.70425545253105
O          -2.20831077550514   -0.36922004507718    0.78414530893352
H          -1.85882403082081   -1.10286094633188    1.37701137866978
H          -1.44156175569165    0.32221029572074    0.79176853958782
H          -2.18363247426849   -0.78305171714969   -0.27605027650733
N           1.56126028840616    3.32867464685056    0.38552231359438
H           1.76014550147626    2.93130543386088   -0.52621236075569
H           1.72880923676206    4.32677173494990    0.35682850985323
H           0.57704773797560    3.16176415100621    0.56396965521117
