    26
        -50.45970193  Gyration_radius:  2.46833467462 Dipole_moment: 1.798
 S           1.12409344009100   -0.15940541833577   -0.64934392259996
O           0.54410514533095    0.55258264781884   -1.76821517161478
O           1.06176331210993    0.63298826950130    0.58499601169797
O           0.50277195246491   -1.46539699579210   -0.43916767394104
O           2.62428029818756   -0.43792980722096   -0.94085169569208
H           2.96574612226100    0.48710916812843   -1.06498854101852
O          -2.65097056953457    0.19758089963489    0.77596469521972
H          -2.59446980631659   -0.66215244768176    0.28076775984310
H          -2.37537683818820    0.88585403961945    0.11244256711654
O          -2.09509369300557   -2.00038860530463   -0.55203096349687
H          -1.14397330108993   -1.81029946416322   -0.69429642328744
H          -2.12351771065997   -2.81406224501253   -0.04383898070845
O          -1.70522995335548    1.73104825324687   -1.12805962758560
H          -0.83249228746588    1.32798205691802   -1.35130486457717
H          -2.22324374706145    1.68554516904110   -1.93426268912858
O           0.03349601231675   -2.41514849942855    1.94206377494862
H           0.26994120380955   -2.15899380524667    1.01522495605769
H           0.84909892402805   -2.69737571486272    2.35865441518446
O          -0.70010735425092    0.04612045823132    2.26625624024258
H           0.04014209064351    0.38374733202448    1.63107006371536
H          -1.65061835948650    0.14925028040978    1.64676629977928
H          -0.51409290073284   -0.94048122225032    2.32773403559543
N           2.79646538536959    2.14744299121402   -1.11061057877387
H           2.04314308097207    2.14621608806859   -1.78971366606174
H           3.39204372063422    2.94926635654028   -1.27645754504265
H           2.36209583290813    2.23890023490226   -0.19879845588425
