    26
        -50.45150885  Gyration_radius:  2.46632218611 Dipole_moment: 3.784
 S          -0.77551769911395    1.01008896011784   -0.64085206317654
O          -0.50916063493565    1.00715046150936    0.79813822326902
O          -0.00731997467691   -0.03219262610702   -1.31313587516140
O          -2.21113124913707    0.85054694260990   -0.89124941484113
O          -0.36622807465434    2.37366909523134   -1.21381414381541
H           0.63971138095533    2.35463285508593   -1.22841912091231
O           2.19489036902601    2.34095404256072   -1.06807641501249
H           2.34601375657621    1.73952575533370   -0.27372132169611
H           2.48471976635047    3.21740174138703   -0.80624659152969
O           1.75148588437314   -1.77816481695391   -0.29266591937613
H           1.18497435478671   -1.05504629723218   -0.62804302665749
H           2.36475558099271   -1.97223361770919   -1.00357750248179
O          -0.98474502915721   -2.45567113286726   -1.16399038527630
H          -0.29804717194457   -2.81067211953588   -0.58606902774378
H          -0.63486325926930   -1.57512304569929   -1.43995710575438
O          -1.85207701220988   -0.71412285738673    2.17011432476822
H          -2.37149289414879   -0.21428701179337    2.80280051208679
H          -1.26160026614542   -0.05199282715140    1.71435998205572
O          -2.94137388255458   -1.33627245609294   -0.02989363037565
H          -2.74055929196457   -0.37151537769173   -0.46435930528692
H          -2.23972753570986   -1.94339229069106   -0.49250922305913
H          -2.60976578258244   -1.20844591578386    0.93472859947793
N           2.30445865176487    0.82590763543496    1.07972542571243
H           2.49484492892847   -0.15040730261940    0.87488660393123
H           1.29350446145513    0.89847628435193    1.19886851892543
H           2.74425064298419    1.05118593169500    1.96295789192772
