    26
        -50.46407696  Gyration_radius:  2.36407852116 Dipole_moment: 3.023
 S           1.31533849976722    0.11031126039078    0.46786466680884
O           1.00506343521549    0.15893355676807   -0.96217941963217
O           0.13039311242846    0.48867007945280    1.25374543554097
O           1.78862250298477   -1.20106490320402    0.86386732306185
O           2.41469642552051    1.15461634579557    0.76000922633458
H           2.00371811286049    1.99242642066427    0.38911733855531
O          -1.40341722784919   -2.38209347282776   -0.40844900888922
H          -1.23947347879550   -2.22655840730176    0.60468454667590
H          -0.46344346217552   -2.62353895281586   -0.78146323761985
O          -0.72615510734038   -1.84612787815856    1.97066511362931
H           0.10999477048466   -2.29904499225551    2.12247827640921
H          -0.45936205801916   -0.90280188673801    1.82740002538457
O           0.99850795768005   -2.63238353853398   -1.16211535027510
H           1.42405933227352   -2.21873110891296   -0.36959689681361
H           1.12423407871540   -1.97629158007054   -1.85605050865922
O          -1.92582237745556    1.85892766132408    0.41915086807072
H          -2.59552585581107    1.83082726636785    1.10436292635665
H          -1.13003092822559    1.41611366000269    0.79788348117827
O          -1.54547660007412   -0.10083098948686   -1.40215559800590
H          -1.60040415213780   -1.42553881611188   -0.83728477357591
H          -1.91949116717459    0.61028882761539   -0.84271035365264
H          -0.56745449743449    0.04826854601560   -1.35694928674287
N           0.99773952651554    2.96242855706748   -0.47046043767597
H           1.30177413284618    3.82157722268993   -0.91049894457725
H           0.09766973148051    3.12669728366918   -0.03525777236171
H           0.86424529370136    2.25491984860174   -1.18605764951465
