    26
        -50.45289428  Gyration_radius:  2.64763120834 Dipole_moment: 2.991
 S          -0.76321054710723    0.06494210120741   -0.28663923260391
O          -0.60562042810360    0.43135727219538   -1.66202561785397
O           0.10628001532821    0.98167150553779    0.56743471274175
O          -2.11256819432992    0.08039721853191    0.22370040625621
O          -0.17444094841513   -1.34092269517439   -0.05948060260344
O           3.04688968793425   -1.24556128757386   -2.22608261493737
H           2.83206706070275   -0.29948962806504   -2.00052519958996
H           3.52049022255220   -1.60758850201471   -1.47572881635930
O          -1.65726016495679   -1.58353425517371    2.30868826074009
H          -2.07166284167209   -1.11562611035243    1.56357282694771
H          -1.03041835478346   -2.19273767249268    1.91020703914327
O          -2.79914116901180    1.96378560117634    2.05487291870861
H          -2.74693941587180    1.29303513135668    1.35029732740687
H          -2.93708122038208    2.80733328897861    1.62203999228502
O           0.52661653814803   -1.97589336933895   -2.36326789122077
H           0.11309135492237   -1.19813459774339   -2.75919375483120
H           1.50859240763171   -1.81279037690446   -2.40147937023177
H           0.13660605352707   -1.70270761639244   -0.98748597391578
O          -0.57823319204986    0.75603737978829    2.94062444504926
H          -0.12852818130395    0.89350525267788    1.61068102714498
H          -1.37540311493957    1.32559421916808    2.91225840547419
H          -0.92932079745926   -0.16679901627965    2.95281664677669
N           2.18106216417559    1.18393955386713   -1.52137489705910
H           2.28077859126608    1.41078150781671   -0.53882645107642
H           1.18322327446265    1.05577223088279   -1.68037459400690
H           2.47413121970591    1.99363288423091   -2.05470900244502
