    26
        -50.45150883  Gyration_radius:  2.4661905879 Dipole_moment: 3.788
 S          -0.44481584543574    1.35191107625923    0.09341942774333
O           0.93835487773984    0.90062958817971    0.20056594960676
O          -1.32216404924964    0.25137171835498   -0.30747536943030
O          -0.90777117837668    1.93509619689918    1.35624942910945
O          -0.52395200354845    2.45607203076202   -0.96936051863799
H          -0.00188288590074    2.09764790372131   -1.75120783469878
O           0.66873508109054    1.42510639875026   -2.99358206032694
H           0.48993654685273    0.44279081467647   -2.85818836488057
H           0.18604428213905    1.68429340485939   -3.78127199856455
O           1.97820011678932   -1.52270166197151   -0.27715671367073
H           1.56670762709817   -0.63746702287863   -0.21919925649408
H           2.88368636804378   -1.36553948055142   -0.55032452492992
O          -2.09460339207692   -1.30331456380795    1.59904293952960
H          -1.81111463290147   -0.78161224378378    0.79762549288317
H          -3.05189958982837   -1.24953622550645    1.62492863053435
O           1.56310545509056   -0.36767577769714    2.40337546593894
H           1.48971093479658    0.25027403294576    1.63741284716893
H           1.67900751172448   -1.23469856612723    1.99536104514889
O          -0.77901723582632    0.23000535104314    3.12645891897561
H           0.20421273647615   -0.07370064444793    2.99739407947878
H          -0.85855267552698    1.06301673320912    2.44853467482934
H          -1.35590994811156   -0.48076556234947    2.65908802714903
N          -0.02151840513246   -1.05683343610266   -2.45829064761381
H          -0.64763414809505   -0.73628737118552   -1.71891817404982
H           0.71003937535731   -1.58916705484011   -1.99695330405297
H          -0.53690491317263   -1.68891563841152   -3.05752818075443
