    26
        -50.46206248  Gyration_radius:  2.40765964556 Dipole_moment: 2.095
 S          -1.42241235838516    0.75584511990599   -0.80064136697659
O          -0.66430479324699   -0.19454374050375   -1.60832987514106
O          -2.11110938786281    0.08937017827978    0.29096811148222
O          -0.60757118128775    1.86850269583993   -0.36236957971377
O          -2.54355902714280    1.35482829497039   -1.73523506370501
H          -3.14357210831945    0.62102017257351   -1.81180708306009
O          -1.10260978290404   -2.20230974150747    1.11547434944069
H          -1.62399803634679   -1.40790355574264    0.85850107737348
H          -0.91428464379256   -2.66124571822933    0.26552869987791
O          -0.44418102252032   -2.85089822930243   -1.38263292038717
H          -0.60036157976923   -1.91488399800367   -1.61612340183835
H           0.48821573453588   -3.00874709085064   -1.54554708601638
O           1.75727490121010   -0.45062372013185   -0.57318245930977
H           0.90464869743692   -0.35311429135939   -1.05272944978884
H           2.12027888421576    0.47718983452914   -0.52111616175040
O          -0.34320554624964    1.19502216855249    2.14974387498190
H          -0.40675133252024    1.57166252704145    1.24172232226505
H          -1.23556043825655    0.88946715981154    2.34062213303005
O           0.96859123883386   -0.96228853067810    1.73179377323654
H           0.54727814542803   -0.07492224664970    2.01136765265000
H           0.12802185020846   -1.59363154509865    1.54730262539349
H           1.39456334728955   -0.78397741101253    0.76399121066400
N           2.27026172069445    2.14220439506854   -0.34864500414210
H           2.73932800377922    2.66755657135873   -1.07513165274403
H           2.57476661857270    2.50603474267963    0.54557865055701
H           1.27025208639193    2.32038595846256   -0.42910335638237
