    26
        -50.46185010  Gyration_radius:  2.4011198768 Dipole_moment: 4.330
 S           1.09516960664692    0.38066826323601    1.40443986529335
O           1.57316024038605    0.85270254039671    0.10752248091734
O          -0.17494615530993    1.00838737828061    1.74461528566125
O           1.05120876377884   -1.05763677571014    1.49732559618780
O           2.14726564639302    0.88146716050794    2.46773142203883
H           2.12427273933413    1.82195510180493    2.33074128864535
O          -1.20422682556079   -1.46414752611426   -1.10535913308995
H          -1.53282730425637   -1.35076325582820   -0.14508727080266
H          -0.91812705452360   -0.48640749505592   -1.41688134562553
O          -0.43719710451828    0.85520287273225   -1.61216557504717
H           0.33965583349625    0.93682555222437   -1.01495508602125
H          -1.13895035551777    1.41954373287680   -1.18693853288206
O          -1.70677341111955   -1.08440135733856    1.37907067431098
H          -1.19905379724682   -1.76689935247988    1.82835888916727
H          -1.21516521222339   -0.25217009498129    1.57254738877587
O           2.44580830224218   -0.63837718858370   -1.94843838367987
H           2.31433169901020   -0.05238757745480   -1.17818824114203
H           2.00181693313611   -0.20835402075955   -2.68293759732688
O           1.01971239594024   -2.50492156927255   -0.70762421389044
H           1.14903236460064   -2.12406254054952    0.18913052169866
H          -0.28130977692820   -2.00625992894165   -1.01223212650122
H           1.64687446153370   -2.00418312141627   -1.27958299246744
N          -2.16161838266621    2.13055058203342   -0.04393636011509
H          -3.03981556739093    1.65508282678115    0.12253711768760
H          -2.34445347026916    3.12550951323736   -0.05928515670780
H          -1.55384455896291    1.93307627036156    0.74959146493762
