    26
        -50.46407691  Gyration_radius:  2.36406651103 Dipole_moment: 3.023
 S           1.27164557257790   -0.04066149193919    0.58588739322454
O           0.97772616580739   -0.52667964278128   -0.77143916756852
O           0.27483806861628    0.95279103863537    0.98963372369061
O           1.32641860987616   -1.14766358956558    1.51974852327575
O           2.65190414650614    0.65010743916304    0.53873350325933
H           2.47254968762278    1.42270548540729   -0.07710836592777
O          -0.17195757415401   -2.78087814503200   -0.22723872801979
H           0.31468999130918   -1.98641250496036   -0.56426221876937
H           0.35171401903962   -3.06488960775320    0.52936366351901
O          -2.19057431613085   -1.58046514273787    0.71651538552936
H          -1.79665874152494   -1.33160696922055    1.64577063869504
H          -1.45114656694794   -2.16175672074019    0.27741473342795
O          -0.46736152883332    0.67201400133311   -2.58166568187644
H          -0.59669473949794    0.05940899762931   -3.30744892256933
H           0.15651645350089    0.22902396648327   -1.95932791852166
O          -0.93026391221070   -0.83170724188515    2.77856875686187
H          -0.01855566254018   -1.03683712877345    2.45142377465865
H          -0.96379486146940    0.13087566431136    2.77044121674790
O          -1.95217687771611    0.67105440602802   -0.32482892945021
H          -2.19846825731446   -0.64955048522646    0.19517405294509
H          -1.14711288174416    0.90049584346157    0.20434957385529
H          -1.64303863731569    0.70528573684428   -1.25323999477700
N           1.63547066376652    2.53455636428488   -0.94656231022309
H           1.95178039059561    3.48721093450422   -1.07530421050504
H           0.86639817122189    2.52942893355606   -0.28401381977308
H           1.27615261695535    2.19414986904278   -1.83058469174328
