    26
        -50.46206248  Gyration_radius:  2.4076500838 Dipole_moment: 2.096
 S           0.45678796753084    0.33612179044277   -1.70695146870240
O           1.69694325739590    0.73400606025259   -1.06369571403773
O           0.11905007423053   -1.04945278807748   -1.39639268458185
O          -0.64046434846241    1.23830306527555   -1.43100260396638
O           0.71950723650249    0.40317071326696   -3.26119417190969
H           1.55884728797968   -0.03783665067449   -3.33444110308044
O          -1.31463351080949   -1.09876392623036    0.82690285652155
H          -2.08029185765257   -0.48141978262035    0.65967884388980
H          -0.85000800841312   -1.15195005558749   -0.03782030351841
O           2.39572123447676   -0.59378321374592    1.10363987148670
H           2.29707105736101   -0.07569738895670    0.27247836545009
H           2.22707555319252   -1.52586475792560    0.83668237434636
O           1.44249553853219   -2.85500400702392    0.06785838328996
H           0.74573364346114   -3.28672787567355    0.56676900799141
H           0.98928345306683   -2.30252218084951   -0.59876888673695
O           0.30377963112551    2.35199320591059    0.73743652175415
H          -0.13401616201440    2.03780747946962   -0.08717482824543
H           1.22660348173858    2.46058587815322    0.48706504441406
O           0.30226708562718    0.23275923229145    2.17206950077315
H           0.24386342094885    1.14864869872891    1.72392810765759
H          -0.43112340871108   -0.37414733751729    1.67844985998541
H           1.24134697625589   -0.15104646275743    1.84036487656157
N          -3.03697946961028    0.79173985932443    0.12275845063886
H          -2.37453499897612    1.09303362780327   -0.59043019364644
H          -3.19000679017365    1.57321967896256    0.74770332430042
H          -3.91431833459201    0.58282712775615   -0.33591342064735
