    26
        -50.46206247  Gyration_radius:  2.40765645453 Dipole_moment: 2.096
 S           0.77350163782642   -0.64878244145192   -1.48870493843970
O           1.88096015802329    0.15071333237528   -0.99431000874892
O           0.35308021816561   -1.63960241690029   -0.50287204934164
O          -0.33553618219655    0.15020230102546   -1.96379125406514
O           1.32209311501213   -1.44897526790362   -2.73286796879890
H           2.15029544646092   -1.77804338681738   -2.40098763279972
O           2.13496158277876    0.34840173294500    1.62198831289437
H           2.20410650432515    0.29493634114314    0.64151073208590
H           1.99831407703158   -0.58194655037322    1.91229252409860
O           1.34093858766094   -2.17604643243909    1.92444966253986
H           1.03192357107800   -2.13962665632592    0.99804948974628
H           0.55411660285414   -2.30973133127931    2.45726452787506
O          -1.46965065029916   -0.55014130965107    1.07566247839355
H          -2.17690735941490   -0.20597148082190    0.46193347707459
H          -0.85364452754524   -1.04147536460771    0.48780050179865
O           0.21356026571688    2.37268723523849   -0.70156546184251
H           1.16902522390521    2.40194111506877   -0.81266520021567
H          -0.07017793422726    1.61019948482841   -1.25699249859314
O          -0.10176616255994    1.44511817425295    1.66266368276195
H          -0.05526685811851    1.93798723588908    0.76935170837393
H          -0.74407169733961    0.60364605749857    1.49162809313756
H           0.87374775179525    1.02568689800991    1.77053387302901
N          -2.98834815627685    0.45083932645810   -0.85514626424387
H          -3.23698582400426    1.43165899002595   -0.82464903181529
H          -3.76985746326238   -0.05684030618234   -1.24925547190511
H          -2.19841194739120    0.35316472998161   -1.49132128300036
