    26
        -50.46206229  Gyration_radius:  2.40775497284 Dipole_moment: 2.100
 S          -0.88400201325648    0.13902367467211   -1.55977013549912
O          -1.34708464479488   -1.17886279124019   -1.16116340621174
O          -1.20564790235548    1.14226272177940   -0.54964033801285
O           0.51660536055011    0.16235915337330   -1.92311280559843
O          -1.69585319895657    0.52300336642814   -2.85690998091892
H          -2.58292066895004    0.28946992350093   -2.60606978362448
O          -2.51387530202667    0.88998169789811    1.76944692211998
H          -2.16728343337577    1.08277778539734    0.87621883158386
H          -2.00389959354533    1.43626294161471    2.37142667191300
O           1.27640701500309   -2.01512654140534   -0.69214762160349
H           0.53195702601263   -2.59215437720605   -0.88942806285553
H           1.10298094335879   -1.20679600498221   -1.22765723543092
O          -1.64551846566075   -1.60420173701998    1.42316444267339
H          -2.10504200941214   -0.78421623045079    1.71465005004029
H          -1.65382929754825   -1.55724463382266    0.43995084761819
O           0.77593025742194    1.25624994659608    1.19972453971967
H           1.59672904648913    1.41923213029146    0.65649137583153
H           0.03815579320595    1.31991321182825    0.55308628098624
O           0.79695515354856   -1.18600807831455    1.68097385693647
H           0.83453125519684   -0.12111090138993    1.56033072486011
H          -0.24390654634521   -1.42179327638369    1.69434025574014
H           1.12065802586269   -1.57194630141577    0.79243172865756
N           2.74098568334853    1.42382716188653   -0.57421755050297
H           3.10125730616118    2.31113805712783   -0.90071864448985
H           2.09905135048992    1.06731800737073   -1.28061923970128
H           3.51665884957958    0.77664109386756   -0.51078170423219
