    26
        -50.46206247  Gyration_radius:  2.40766630228 Dipole_moment: 2.096
 S           1.56054000192988    0.89289223934212   -0.05352217319447
O           1.24907430670301    0.22474306123686    1.20620452707979
O           1.81940385998631   -0.06869638935449   -1.11108092340654
O           0.55845362273080    1.87369279811207   -0.41116852127632
O           2.90815844012622    1.68205469265673    0.17089229256356
H           3.54406006621548    0.97538391774837    0.19539143213666
O           1.15889842839540   -2.38369792445103    1.79225045389717
H           0.37766875483770   -2.45801164990492    2.34452735129307
H           1.32259015428689   -1.42564291769385    1.69036348394928
O           0.74502617702843   -2.46029260864714   -0.83789455187761
H           0.93648625214832   -2.66469661123590    0.10553217198274
H           1.26405694193031   -1.64522971006414   -1.02563390652966
O          -0.60899594755763    0.55466183764455   -2.34284669296490
H          -0.22637898401352    1.16072782848937   -1.66707726125771
H           0.15947435034691    0.17691128200978   -2.78200692994191
O          -1.35779939610534   -0.21498907277394    1.31520516756231
H          -1.78105027284947    0.67643008704978    1.16837515254776
H          -0.39580408749736   -0.02188537548690    1.37626395361363
O          -1.48972954240221   -1.36010120745501   -0.89115409866042
H          -1.51864936814455   -0.91106926381564    0.08220741319214
H          -1.27791500631852   -0.59738578811595   -1.53651310405595
H          -0.59865863165505   -1.94760655395019   -0.89372199338562
N          -2.11072785825150    2.23671000395932    0.63798419518668
H          -1.17436478193539    2.39394933806939    0.26818271029109
H          -2.29888057724057    2.95573426827731    1.32458705785471
H          -2.76493691269665    2.35541372837002   -0.12534720660908
