    26
        -50.45390674  Gyration_radius:  2.4683607408 Dipole_moment: 1.697
 S          -0.84550959884156    0.99307696114363   -0.30182266127658
O          -0.92391345945306   -0.46847830881141   -0.16556382187588
O           0.51750632150671    1.44434826110180   -0.08693015853114
O          -1.36592943905682    1.39176252840786   -1.61614601475350
O          -1.78219223369687    1.62921819329393    0.73190522314374
H          -1.42456543219539    1.42533636222801    1.65731040027438
O           0.26593558676715   -1.16874756358295    2.15024759803103
H          -0.17094403414804   -1.06959595183312    1.28503101321401
H           1.17871329920345   -0.82027462313149    2.02687276719855
O           1.58266178385533   -0.34037945899273   -1.65372719515184
H           1.44495968446856   -1.14245161080260   -1.14145810284095
H           1.30951278973804    0.40195766309289   -1.05908277422774
O          -1.71578614282063   -1.93231998721685   -2.16928054948917
H          -1.47221691525516   -1.49215070044759   -1.31617508520981
H          -2.67129165784688   -1.88538778989589   -2.23446734125427
O          -0.93456360617648    0.94790274632080    3.04226491162124
H          -0.43673214857882    0.10339035273726    2.82139942646996
H          -1.68324499568468    0.68720471495994    3.58272749237253
O          -0.35648423096150   -0.09168154691945   -3.27754821005201
H          -0.90619466796547   -0.92208385620219   -3.04575721794537
H          -0.83184671542265    0.66455979993510   -2.63851369609336
H           0.53985485413403   -0.22487788019051   -2.79245951750455
N           2.53071466829410    0.23958143306999    1.62460120608947
H           2.87327259870213    0.74165314121060    2.43414366095980
H           1.94801077684541    0.88411095724114    1.09291542145402
H           3.33027292459043    0.00432615328034    1.04951322537293
