    26
        -50.46154479  Gyration_radius:  2.43324269665 Dipole_moment: 1.374
 S          -0.02612141586969    1.73672630939120   -1.25035469919944
O           0.75205585482759    1.61514527918883   -0.03139480502624
O           0.47758167324955    0.92703538223839   -2.33971982771130
O          -1.44642197290157    1.49865123796292   -1.00685313581288
O           0.11148644082859    3.24314107748434   -1.70515304649167
H          -0.18627643621422    3.22965557832832   -2.60902070081670
O           1.72884511962294   -0.78900466660222   -0.48781772003235
H           1.84265861762326   -0.79327602129006   -1.44266381623725
H           1.48603791434716    0.13798078395484   -0.28034365183724
O          -1.43125431120132   -0.92404924558624   -2.45898632512180
H          -0.68307033571256   -0.30014124844308   -2.55170412610214
H          -2.19288889670918   -0.36516755561684   -2.28310150186056
O           0.00984329749590    0.87635420349304    2.42984078383430
H           0.57172457098174    0.05653000892535    2.55041958128227
H           0.41918162319509    1.36485853808805    1.69081833065047
O          -0.69201433733981   -1.90675772782602   -0.11055203001194
H          -1.03906402305206   -1.77253315464633   -1.02439479204550
H           0.24837022219856   -1.62668333646645   -0.16787728847840
O          -1.83817000080836    0.02584376501356    1.01352572741561
H          -1.41517754510328   -0.85758441473565    0.62445924886686
H          -1.11799916229520    0.40085133446373    1.73190875648062
H          -1.78887774785512    0.68054949836473    0.23250441641040
N           1.41462682444827   -1.38659276228203    2.42497308728615
H           0.79692842502649   -2.18850720392988    2.39314102741139
H           2.11679538343562   -1.55812040228294    3.13275031172339
H           1.88120019797596   -1.32490525706680    1.52559618557842
