    26
        -50.46154483  Gyration_radius:  2.43329029337 Dipole_moment: 1.394
 S          -1.21463319354654    1.09583163507021   -1.38058237353628
O          -0.03362330022674    1.62745781560590   -0.72558342745779
O          -0.91654364030264    0.10154372467620   -2.38987530326986
O          -2.19344201631933    0.61068107069648   -0.41113786142845
O          -1.88199683921862    2.31507166292770   -2.13118483268993
H          -2.47731308454310    1.89729679543191   -2.74506171000438
O           0.14048962132484   -1.92432086965295    0.63523171489047
H           0.78201690364832   -1.45579895133412    0.05651525740383
H          -0.56697746715650   -2.22437299000560    0.01634436860092
O           1.54182639697034   -0.44617277762432   -1.12693883475531
H           1.25204336515378   -0.76861411820889   -1.98530492637431
H           1.05755580876337    0.39867598156023   -1.01326124980898
O          -1.80464104691084   -2.08490718654762   -1.15869360482527
H          -2.58351654624555   -1.71268478675484   -0.73658085943525
H          -1.47236101212882   -1.36992429559995   -1.73834479289803
O           0.63978953110063    1.67120594004225    1.86263342838882
H           1.47680958824338    1.12200240943229    1.84176157941157
H           0.48573427270543    1.94441146300784    0.93852589822593
O          -1.11880521460662   -0.07337472070224    1.77584851726741
H          -0.38348328582503    0.70637236360790    1.94073646003804
H          -1.65232643148117    0.24185033501643    0.96534846540367
H          -0.57638677160007   -0.89971055583149    1.41028221381857
N           2.69346198299696   -0.00338386648165    1.59615148507828
H           3.62558975223247    0.27732617558059    1.87150526390216
H           2.69282625782191   -0.15583225098343    0.59257257777392
H           2.48790635913272   -0.89063000292153    2.03909256626847
