    26
        -50.46154480  Gyration_radius:  2.4332316533 Dipole_moment: 1.373
 S          -0.42248413028126    0.49378233629794    2.03948101830979
O           0.65246465058489   -0.38663531269220    2.44625776806008
O          -0.02993947124474    1.45658990123103    1.02695806149801
O          -1.61365812488772   -0.25085897816233    1.63955652805842
O          -0.82022633931543    1.33989284308110    3.31269240001181
H          -0.82771586211392    0.69517804735679    4.01274688669920
O          -0.17556890334492   -2.66475325537370    1.34708011678702
H           0.23007900114396   -1.91548544148243    1.82847499042499
H          -1.11864150947929   -2.57425771287509    1.50762784119157
O           1.96079590818798    0.07316296714463   -0.00608607714130
H           1.30050736516275    0.69096366384088    0.37274066777769
H           2.31895039470619   -0.38524988697300    0.75964569129583
O          -1.02314572715969    1.90224926342190   -1.41618246513865
H          -0.67743909790200    2.04333185340518   -0.51454588495349
H          -0.22175978196804    1.69305447002301   -1.97889449473021
O           0.24421526376408   -1.69934105792392   -1.08584316801219
H           0.95231843499156   -1.06751795903803   -0.83022564454690
H           0.13546120218736   -2.27321395669798   -0.29059836011482
O          -1.87278608002803   -0.36259010291627   -0.87563843457823
H          -1.02622105039652   -0.95750411380696   -1.07570984953008
H          -1.89703946799434   -0.31289333746491    0.14311192747418
H          -1.60517293265833    0.63918295049296   -1.19309884820689
N           1.15332649434227    1.07093423574788   -2.70635268981088
H           1.77508679413613    0.86673274495322   -1.93039378146716
H           1.63899697616193    1.68651727448780   -3.34564135259926
H           0.96959596338020    0.19872856390000   -3.18716285679442
