    26
        -50.46975354  Gyration_radius:  2.44546149681 Dipole_moment: 3.760
 S          -0.28757296991590    0.95706886573000    1.61708979836641
O           0.73838698169072    1.96472631132463    1.72531152499348
O          -1.20879010218844    1.19894074921621    0.50309276844685
O           0.22511623604610   -0.39847184017081    1.57650289409480
O          -1.17252371189608    1.09005439197963    2.92738723068461
H          -0.62586298199579    1.67121524142154    3.44428959883261
O          -3.12434371986586   -0.62498742379634    0.21142557541548
H          -2.49227165336622    0.11551041855772    0.31574468376366
H          -3.63249350252302   -0.65662957804661    1.02349245794452
O          -0.97279291523512   -2.27188989737171    0.08258821967139
H          -1.85806091766807   -1.86601019020969    0.00918845669280
H          -0.51447755284206   -1.72899263929280    0.75267946410022
O           2.33505788357365    1.70166252961659   -0.40197403204142
H           1.88392673506534    1.96144639940780    0.42769318952185
H           1.15731544978402    1.37431489110750   -1.29364269488489
O           0.49529591183372   -1.65130247633292   -1.94889533894928
H          -0.08531403165278   -1.95394704326730   -1.18305117366908
H           0.35435615457288   -2.28148821835190   -2.65576670909057
O           2.42749075594909   -0.90622743784820    0.06723030136005
H           2.00012286053134   -1.35206903013941   -0.67523223658094
H           2.65580899124106    0.78576224106480   -0.22920422701271
H           1.73900980158402   -0.82479392834545    0.75073533980030
N           0.21169844929407    1.01788793749002   -1.70134735620697
H          -0.46850065673820    1.11525483259175   -0.90364436505674
H           0.30620662909423    0.00397476879481   -1.93656603352369
H          -0.08678811438077    1.55899012487004   -2.50512732667218
