    26
        -50.46975330  Gyration_radius:  2.44546009429 Dipole_moment: 3.774
 S          -0.62558951323713   -1.78348313274359    0.19827354154561
O          -0.00250055408026   -1.41172133155166   -1.07537239992670
O           0.27867275175410   -2.47551144278916    1.08324192900205
O          -1.27931137263071   -0.64044187481326    0.80464048571439
O          -1.75609779038671   -2.83098228831556   -0.17922497112680
H          -1.55655924405054   -3.52660247379639    0.43729714344376
O          -1.81676442887848    1.55446465493310   -0.63434063023331
H          -1.78996180089432    0.78757646511732   -0.03024203803768
H          -1.80797189418244    1.15748261851079   -1.52662443797189
O           2.13859285677496   -0.71577643023729    1.85079651595101
H           1.56996434955821   -1.49780986769340    1.69462986884588
H           2.16077534270175   -0.08222327692619    0.47680647324894
O           0.49020977326497    2.55539471069090   -0.04821095012398
H          -0.43193685247946    2.22693377789654   -0.28679327773470
H           0.54065552366403    3.45921895889304   -0.36006140471369
O          -1.59600997894853   -0.11128295321258   -2.76366257304470
H          -2.35614847326572   -0.66671093699640   -2.94347433354363
H          -0.98815903806296   -0.65172210767411   -2.21850061644237
O           0.19779835355280    1.01204671842665    2.37788258244695
H           1.54820826327887   -0.07162788724036    2.30700017364429
H           0.29290444539589    1.75388340392007    1.76689363671621
H          -0.46096242628776    0.42328797062092    1.96905865561531
N           1.90380160960915    0.30665864815644   -0.50811855280018
H           2.70705636963855    0.34647490592266   -1.12547739821935
H           1.46130871181603    1.24670228472020   -0.39520754121316
H           1.17802499637355   -0.36422915381898   -0.87120990104477
