    26
        -50.46975347  Gyration_radius:  2.44542536594 Dipole_moment: 3.762
 S           0.44778156220718    1.41298425555496   -1.18922384720878
O           1.73848050485626    1.92757488355046   -0.80324336558988
O           0.51095953527041    0.04057707858779   -1.69995254973570
O          -0.56291756121722    1.53217644357356   -0.15668687284265
O          -0.02548532631053    2.29558596962817   -2.42003172411729
H           0.62142158715591    2.99144947084818   -2.38945940214865
O          -0.92899623765744   -1.66260496090577    1.77389642941000
H          -1.57255518989489   -1.18039335007062    1.16688413879734
H          -1.41987392386229   -2.38741421163627    2.16165439689871
O          -1.83312840492793   -0.99330649520139   -2.41886663243790
H          -0.93628483243986   -0.64137372861472   -2.24437762019509
H          -2.21223683675337   -0.43014874192182   -3.09535270292481
O          -2.44374261521805   -0.35143552929465    0.14480281186007
H          -2.41376756879964   -0.74110886230279   -0.75022884826942
H          -1.89927386022370    0.45615767259636    0.07316149449689
O           2.52517661232316    0.55420069851334    1.35089209517260
H           1.93345941101820   -0.72461552266616    0.79941634626672
H           2.42721455205821    1.15886969151331    0.58665320209726
O           0.12633497492333    0.95282144164000    2.40764048896581
H          -0.30482502583885    0.09235726892200    2.48729918513779
H           1.79458182020773    0.81064776551878    1.96086049039915
H          -0.19840551886725    1.32804767232316    1.57006765997381
N           1.31671398457688   -1.46847709435371    0.29577919042086
H           0.48472913419370   -1.67767695515686    0.89274377216957
H           1.83634487987854   -2.31066151052523    0.07521765174674
H           0.98829438333955   -0.98423337011759   -0.57954577834154
