    26
        -50.45440517  Gyration_radius:  2.44951936166 Dipole_moment: 2.518
 S           1.48827121581250    0.34754988987284    0.12735782253231
O           0.71532420266407   -0.78141567171168   -0.35366316992101
O           2.72382508923912   -0.02785222531244    0.74176082948015
O           1.71485094131244    1.32591798682448   -1.00642661502440
O           0.60982915801801    1.15372034686021    1.10324719113230
O          -1.66213305953901   -1.51182411383157    0.51267716196248
H          -0.79194284556262   -1.29085842882501    0.11416086173511
H          -1.76274243084784   -2.46048562003289    0.41451576498144
O           0.14103961685798   -0.44123463729250   -2.98268889291491
H           0.77363379829388    0.22365383331740   -3.26182968145845
H           0.41362853833258   -0.70241100968850   -2.08687928708240
O           1.87578138312822   -1.84003486244083    2.50707407651037
H           2.51209118798528   -1.87062389125032    3.22478023939749
H           2.27626686234883   -1.27870177961709    1.81335861701890
O          -0.40792667625505    2.59677599569202   -1.02609062841383
H           0.82143720265295    1.91511654140278   -1.08881921020116
H          -1.12511224946617    1.89609753597904   -1.27305022655675
H          -0.49203282512333    2.74518411985840   -0.07918460248104
O          -0.40748310699953   -0.48856928950299    2.67750304800979
H           0.35660811848936   -1.10504580428122    2.75662239188263
H           0.17079489502394    0.52310525838681    1.82296512028658
H          -1.04331107641619   -0.91262319033457    2.06439237656122
N          -2.10063109870840    0.72248790704489   -1.60081533241061
H          -2.26766739678769    0.10355442322714   -0.81416590033673
H          -1.54176741153216    0.20802351960583   -2.28293158768034
H          -2.99063205292355    0.95049317607060   -2.02387037701543
