    26
        -50.46327890  Gyration_radius:  2.3677052504 Dipole_moment: 4.810
 S           0.39918714654780    0.76045272387510    1.17913690581279
O           0.97547028785536   -0.58584374201819    1.11546520467271
O          -0.26962877121229    1.07452546085989   -0.09169764738578
O          -0.53034391513484    0.87966172502663    2.29384155140473
O           1.53473785330056    1.77024243237404    1.37219772123096
H           1.97649536436804    1.79221012632076    0.44172226912057
O          -1.07337483943554   -2.18858143190761    0.75790148528057
H          -1.08882550453747   -1.98265996840251   -0.20881627408045
H          -0.23008489164848   -1.77778120435013    1.05630533492081
O          -2.87036822631745    0.80171979141231   -0.40662645668002
H          -1.94392007430316    1.12553970881232   -0.32505581811255
H          -2.86882014075865    0.21442713363751   -1.16883104228806
O          -0.69452423365385   -1.06063494819584   -1.61208987274112
H           0.18238557155108   -1.37138849830225   -1.87056865007892
H          -0.51050529900814   -0.22088191698414   -1.13850574402612
O           2.10027794784835   -1.22441449651608   -1.16344925212169
H           2.72570779953647   -1.93306341525181   -1.00441722624502
H           1.70562087886229   -1.01197797040594   -0.28313932651695
O          -2.55862977594747   -0.46950585588374    1.77684608902581
H          -2.88147181270431    0.03917031740815    0.94615808541068
H          -2.02823560395910   -1.31802828586879    1.39229000457344
H          -1.77795017117391    0.12680777526018    2.13628833276088
N           2.40516973603089    1.67560458457162   -1.04033521448768
H           1.59944614080652    2.03917376114790   -1.53298947193601
H           2.48690288352245    0.68556532246690   -1.26564126147783
H           3.23528167956571    2.15966087091135   -1.35598971603053
