    26
        -50.46975347  Gyration_radius:  2.44536888363 Dipole_moment: 3.763
 S          -1.29915705587839    0.05187335558695    1.38495005881712
O          -2.56076968623185   -0.36919756007212    0.82748676909331
O          -0.30336448659288   -1.02321731124502    1.41670223673812
O          -0.75229455722819    1.24233394501485    0.76410376391312
O          -1.58676683364655    0.40016840904527    2.90609913983060
H          -2.53726289467463    0.38145466877860    2.90863458467765
O           2.06017175433858   -0.32424005659110    2.41973505288427
H           1.19231392291465   -0.65938670683394    2.11439536369528
H           1.92124314912818   -0.00172069143312    3.31155101283184
O           1.78387118386403    0.36937817306875   -1.85894257336518
H           2.63388631156597    0.43354209881688   -2.29488685681140
H           1.88183940394177    0.85186129814264   -0.97990004094566
O          -2.15681532464517   -0.85071686532205   -1.77065295157498
H          -0.79030714811731   -1.43661694921138   -1.48951463638450
H          -2.50853386133451   -0.73422810514868   -0.86399255192592
O           1.89214708169116    1.52874462297617    0.44585063673447
H           0.93161142835320    1.60942555775882    0.60285534280044
H           2.19671537310489    0.90825162197298    1.13580296030102
O          -0.88705133393746    1.47058862757896   -1.94084579471995
H          -1.88167237598354    0.05537860154729   -2.04433298666796
H          -0.91438972518241    1.57600673027094   -0.97343020739660
H           0.03654581988979    1.28376228184729   -2.15239573942775
N           0.19455909558260   -1.66493846871596   -1.08297453793677
H           0.47939075228879   -2.61743154369555   -1.28184921203514
H           0.09087923341812   -1.50734296338947   -0.04707572751649
H           0.88321078336979   -0.97373277074662   -1.45737311560330
