    26
        -50.46975342  Gyration_radius:  2.44533217176 Dipole_moment: 3.765
 S          -1.21677989168906   -1.39110219711279   -0.43923150569339
O          -2.55583043591085   -0.87888176531338   -0.28351522593510
O          -0.48474868454793   -0.74839161008932   -1.53444132404430
O          -0.43650945504314   -1.37241961315752    0.78245984195060
O          -1.37610760453143   -2.90808407169794   -0.87670071104035
H          -2.30697677517476   -3.03145974371322   -0.72855168421017
O           2.19598631134558   -0.88050286798348    0.72011542329913
H           2.37380756054489   -1.12294008468917   -0.20909458083001
H           1.28189458769034   -1.18644497357583    0.87696257116957
O          -2.33976699333318    1.64290147084620    0.57690501226969
H          -2.63160786603882    0.75942701718591    0.27100486132056
H          -1.13003114010804    1.88076700598884   -0.30060779987785
O           1.77004513063421    1.65599791940206    0.94966678729492
H           2.60110985624426    2.11458881392295    1.07495642424364
H           1.99658713840138    0.67630919655523    0.88639183378671
O           2.00122851837691   -1.63271269627257   -1.87868346561307
H           1.96125608136595   -2.57659876587321   -2.04023393056997
H           1.07280039152713   -1.32294758501314   -1.85041664784083
O          -0.59104256872030    0.81398917972806    2.38949231217456
H          -0.56747551557131   -0.07137493333097    1.98535785498424
H           0.26173673466808    1.21500100682157    2.17828396788699
H          -1.87809622232272    1.46642546341193    1.42970761945708
N          -0.20969615154601    1.78098841051342   -0.87529840723398
H           0.60477989058302    1.85342728211822   -0.22436407460012
H          -0.14924590140054    2.46343392698920   -1.62265374939897
H          -0.24731701544451    0.80060422433599   -1.25751140294668
