    26
        -50.46670423  Gyration_radius:  2.38936666502 Dipole_moment: 7.726
 S          -1.02462032646964    0.29299501014516   -1.17611199181213
O          -0.49110082652207    1.48015669933245   -0.49966106186352
O          -0.06093318869591   -0.80940879926755   -1.09463720232747
O          -2.34033675041332   -0.06272290728250   -0.74340683745195
O          -1.10218445461316    0.68034276849431   -2.70213620226458
H          -0.20573915946804    0.94710144450496   -2.92737287101956
O           1.73868676896389    0.44123311183010   -2.46773041876938
H           1.13392317677560   -0.14397637262098   -1.95208782369920
H           2.13498102338229   -0.11046289849778   -3.14491846905114
O           1.60849069965422   -1.09543815948246    1.00895655133210
H           1.04151664933594   -1.27038623080800    0.23594980714574
H           1.96739148699206    0.27843260090553    0.64058734430640
O          -1.82826202147623   -2.25672357321974    0.74577739722221
H          -1.22550105165618   -2.71760443562036    0.15882685369308
H          -2.15616132190015   -1.49865500511387    0.22961685745110
O          -1.82192991581448    1.22555922001181    1.83023482672922
H          -1.37381610759715    1.45906479691854    1.00067994392478
H          -2.65477664760634    0.83150571548485    1.55749089584572
O          -0.38777127508859   -0.93955380734926    2.65573771324170
H          -0.96184397807135   -1.56574027400813    2.17427271714425
H           0.95647122758747   -1.05716751994620    1.77006482761806
H          -0.83879885503027   -0.07889447540793    2.55663437977887
N           2.00740664948498    1.28053744406969    0.16952181588144
H           2.43207050849379    1.98857852515143    0.75764161077995
H           0.98756501182114    1.49657477864480   -0.04130456383019
H           2.46527267793031    1.20465231313220   -0.74262611000243
