    26
        -50.46670422  Gyration_radius:  2.38934465639 Dipole_moment: 7.725
 S           1.25097049275616   -0.55242181702625    0.80567472395449
O           1.25856800092368    0.45244300249631   -0.26239688531889
O           0.00176037646979   -0.46690781966798    1.56961292561240
O           1.54757458811787   -1.87510868419865    0.35024284437536
O           2.38592190790029   -0.11713240513256    1.80929653185366
H           2.11603076547618    0.75517334658077    2.11219824285532
O          -1.30631340153221   -2.51104994738304    0.39724393451150
H          -0.88860035530201   -1.82594582416749    0.94473488212674
H          -0.59770111128649   -3.12591861044220    0.18949601200560
O          -1.01232561491676    1.25830384099073   -1.48190488755491
H          -0.08194914894858    1.04239738381446   -1.28859501626419
H          -1.40575557742888    1.54013919342545   -0.09713902149316
O           1.00972290283414   -1.65559617293320   -2.28706354131011
H           1.25532607929556   -1.86997216299866   -1.36927918218212
H           1.44947313305248   -0.82431078611564   -2.47653796057201
O           1.18777820342723    2.44545700142733    1.38417106166776
H           1.81858697162836    3.13201114438026    1.15895053843532
H           1.23361716658039    1.77794319199102    0.65863636504759
O          -1.66443840825945   -1.20350152422934   -1.96672125760736
H          -1.40477972720334    0.37420890498423   -1.74701021818414
H          -0.78898525786222   -1.47250190870100   -2.30532093647114
H          -1.75769700059615   -1.69733635830162   -1.12921168510553
N          -1.43932449262046    1.61586508758025    1.00782240227991
H          -0.95741727055030    0.72494453981422    1.33222434253614
H          -2.37848398112083    1.69721505487370    1.38042936368774
H          -0.83155925086716    2.38160231892694    1.31044642111736
