    26
        -50.46158825  Gyration_radius:  2.43391905264 Dipole_moment: 2.653
 S           0.10791244155954   -2.11693368254760   -0.45760673762549
O           0.41674234066339   -2.06171822431532    0.97071365515238
O          -1.05631694981735   -1.28514561138134   -0.75531621301484
O           1.23649738867674   -1.83157502541095   -1.30080759130096
O          -0.32058023128199   -3.60757204531243   -0.74863650361333
H          -1.02395302919567   -3.76533431225804   -0.12689505495234
O           2.91976833051902   -0.77490167888414    0.46959693161318
H           2.44401555541821   -1.20092973347259   -0.27096177985819
H           2.72465523035390   -1.32390578615541    1.23324470324781
O           1.39909902915503    1.39207208264525    0.57142810297274
H           2.14125811477165    0.74092823107051    0.57526558008383
H           0.99718322582222    1.29996036763215   -0.32122559341825
O           0.29261007014389    0.73341122906987   -1.79467715402894
H           1.00466210841270    0.28935811409306   -2.26462119417188
H          -0.28970037759197    0.00124138267346   -1.50094488502465
O          -2.30653334820383    0.48021579461665    0.81107571398334
H          -2.08837240281174   -0.21416204087992    0.15876474835074
H          -2.14158999197803    1.34811211489516    0.33993964279852
O          -0.18731007221114    0.14111937664926    2.05339093360358
H          -1.16492008719038    0.32884524000265    1.63159391170503
H           0.05019856415231   -0.79704269188707    1.72729370207822
H           0.47699554343787    0.76339321918608    1.51428187770402
N          -1.53366394980814    2.67550255114760   -0.47943407173658
H          -0.99332752390804    2.25656694465213   -1.23007695710338
H          -0.89592709179945    3.22267387276166    0.08581414603764
H          -2.20940288731899    3.30582030140147   -0.89119990348186
