    26
        -50.46158824  Gyration_radius:  2.43389919142 Dipole_moment: 2.652
 S          -0.30675543202107    0.30495239995654    2.12492220958600
O           0.95714684092509    0.57943808877054    1.44437754779969
O          -1.38869651620063    1.07407456861111    1.51143056570275
O          -0.59330336089724   -1.09891467758257    2.23961222571429
O          -0.15660846167482    0.86678842935812    3.59192917311515
H          -0.03114572181240    1.80164360961550    3.46351572529729
O          -2.69348005058565   -1.30745484825602    0.61777346933082
H          -3.13383695890253   -0.47513760383850    0.80748387504230
H          -1.98548474052518   -1.37277493209184    1.28916006650111
O           1.02975153845604   -1.66761082081771    0.05877914843442
H           1.12454612099696   -0.85001945651262    0.59168890370058
H           0.66427267649549   -2.30684203228815    0.67753322055453
O          -1.08256216678357   -0.96249654466405   -1.45699455580919
H          -1.80499578473998   -1.22643743691562   -0.83794596603325
H          -0.26061513351654   -1.28955331073027   -1.02770488278912
O           1.38565101582831    1.89223234718341   -0.84169443472589
H           1.74804068117475    1.17717207110983   -1.44152180006370
H           1.44767994463350    1.52751203419005    0.06295479175978
O          -1.05899220851112    1.49305469657588   -0.95944128326240
H          -1.26554648100939    1.42059849751896    0.03806449952809
H          -0.01490825985993    1.77149313977206   -0.99446412443733
H          -1.09463944415137    0.48894933429020   -1.29057670539731
N           2.08996695851928   -0.21413131188619   -2.30769606456558
H           3.00187088953850   -0.26807564601779   -2.74246382579577
H           1.39192018464604   -0.41383609392778   -3.01374081993827
H           2.03072386998244   -0.94462450140641   -1.60498095922700
