    26
        -50.46004796  Gyration_radius:  2.42149319203 Dipole_moment: 1.659
 S           0.07709195086646   -0.79873693228752    0.35099733727348
O          -1.21102003224505   -1.06745081934611    0.94935071324572
O           1.07640437368474   -0.35905531315405    1.31647834911568
O           0.65875911020366   -2.10524458018778   -0.26051985007153
O          -0.03824648909320    0.15707879386289   -0.76221007663012
O           2.45885680788685    0.08167154942489   -1.55162359232829
H           1.48100822264800    0.07394242774914   -1.44547742621867
H           2.74063965621265   -0.82544951165993   -1.41332474524747
O          -2.60455941459935   -0.82466681681410   -1.28455302931189
H          -2.04691223221041   -0.14329093633544   -1.67325479894464
H          -2.29855141897493   -0.88516481531639   -0.35684010272438
O           0.30530830530876    2.63247182871383    0.10149530388734
H           0.03949631474881    1.87537032234388   -0.46067984435501
H          -0.20039733695181    2.45590847989543    0.94869205696614
O          -1.25660718050616   -3.04834930232149   -1.71097423604116
H          -1.71256301349551   -3.74150246392025   -1.22864760040657
H          -1.86384571790564   -2.26401089121035   -1.70602766365628
H          -0.03661458307270   -2.51739996751759   -0.85442877958771
O           2.47492414587191    1.54540936107715    0.55842434840134
H           1.60213942347535    2.18867877073217    0.36282232348011
H           1.99051579260574    0.74584655017157    1.02006604235227
H           2.70580646553715    1.12937366472721   -0.33403395588457
N          -0.97902639361069    1.59939591609478    2.16776726863387
H          -1.13142664814525    0.66624655430453    1.78960958300547
H          -1.86798846186995    1.94184390231916    2.51267498594915
H          -0.36319166636239    1.48708421865150    2.96421740909934
