    26
        -50.46158826  Gyration_radius:  2.43389345744 Dipole_moment: 2.650
 S           0.61959977939047    0.15867476370417    2.07210122659485
O           0.66672965914500    1.27348970983593    1.12819770629067
O          -0.74096787736365   -0.36949115412391    2.16334625821940
O           1.61007342605950   -0.84855991471478    1.80647231476517
O           0.94426011653205    0.76186919313667    3.49374020795400
H           0.23065120159215    1.37288152905516    3.64737325026127
O           0.06153506265805   -2.87360246523667    1.04091730024384
H          -0.68181541935457   -2.74889961711961    1.63633277899965
H           0.74475755850110   -2.25261979730249    1.36320351269007
O           1.76111496256836   -0.07970909532989   -0.85809422407308
H           2.36979656134501   -0.66721589074821   -0.40054877557763
H           1.43110348590222    0.51543165586270   -0.15214340243811
O          -0.43809251931859   -1.59208538184337   -1.22326089153225
H           0.38285010197630   -1.05116664670694   -1.23972489551770
H          -0.27621886772737   -2.26309084754137   -0.51729918888548
O          -1.20269996721153    2.10069280508291   -0.59036920027336
H          -0.77479731829090    1.93129222819505   -1.47945953149554
H          -0.47573727921165    2.04977486752321    0.06095582065262
O          -2.06165875416627   -0.14419047550513    0.01981605538041
H          -1.46901953168264   -0.77205395216703   -0.59158519317895
H          -1.63527894091031   -0.24164246353866    0.94264779327045
H          -1.81666965989823    0.86521052731400   -0.27992714776492
N           0.03417491292356    1.33676589748584   -2.81956592629643
H           0.28659447162270    2.00708669035287   -3.53395347266841
H          -0.45977882736625    0.57290915052635   -3.26458183158891
H           0.88949367229851    0.95824867382630   -2.42459054401535
