    26
        -50.45310608  Gyration_radius:  2.52588121437 Dipole_moment: 1.457
 S           1.01891827550607    1.22112212908254   -0.01606378089827
O          -0.18677297330282    1.08752346038081    0.79482867996361
O           1.96381690572075    0.14701923935025    0.24271838113310
O           0.68631506693662    1.33788547426036   -1.43119036434814
O           1.69858767697353    2.57038592750071    0.37640790092712
H           2.06084570912468    2.36953852024088    1.26165548984881
O           0.64608114036211   -2.11815220633691   -0.38278306785030
H           1.23233489584368   -1.35160505807655   -0.24528847646778
H           0.05725721875239   -2.11583209629471    0.40887661209981
O          -2.59538861526406    0.93434587567273   -0.13315449615645
H          -2.99469647142488    1.79874805594921   -0.01869707248288
H          -1.70437863657245    0.98137007685462    0.30700780575548
O          -0.81897534818453   -1.90511684694607   -2.46929385658191
H          -0.23504068504296   -2.09069632230251   -3.20712502036571
H          -0.25778860743888   -2.03282525787900   -1.63205256860862
O           2.70632085380523    1.29643365958643    2.46143007951300
H           2.49367957623218    0.62829722483598    1.77648443562513
H           3.66046489173829    1.28294593664999    2.56662225578706
O          -1.45528174467882    0.50832129659144   -2.36419363067336
H          -1.25100277121680   -0.52743844660830   -2.45215121730728
H          -2.05875444173262    0.62901352822898   -1.54577961621433
H          -0.54288847541188    0.91461903354180   -2.04505177403699
N          -0.90694850140523   -1.55666306509242    1.75563506818044
H          -1.91361016801372   -1.59892198146924    1.65785144322139
H          -0.62903738215358   -0.58471935219548    1.63046817530755
H          -0.67405735915696   -1.82559881552885    2.70283858462527
