    26
        -50.46437139  Gyration_radius:  2.49397184523 Dipole_moment: 5.795
 S           0.23432351209914   -1.08833775047888    0.10525671555615
O          -0.04118760539105   -1.12640461619731   -1.32079609118397
O           1.64348156203747   -1.13940728878251    0.43588082210094
O          -0.39358006406631    0.10258521725001    0.71904791238872
O          -0.48635596092192   -2.33195885322402    0.69157866883563
O           1.57473229492642    1.65778948859653   -0.14927258366334
H           2.33127265717435    1.11213091598624    0.08490808170118
H           0.80924703005113    1.19241936103094    0.24677150136891
O           1.41845835995177   -0.16121139470594    2.86507739196011
H           0.67372419646497    0.41744828422384    2.67253060886457
H           1.69540025511238   -0.50033320403867    1.98564630952127
O          -2.44185047454330   -0.04038240557908   -0.84092622044202
H          -2.02328139705798   -0.77800154127274   -1.30894963747139
H          -1.83744324868069    0.06495193687473   -0.06605163053984
O           0.78349957411267    0.99960181230142   -2.58470114240525
H           0.56741073177429    0.08421008370092   -2.27999198545732
H          -0.51406369128065    1.62437939428407   -2.42831523479466
H           1.27759828654211    1.37735679072929   -1.81955753941133
O           0.28384305749328   -2.52515638384913    3.17130804520259
H          -0.25714623092729   -2.43393237464234    1.65735399868908
H           0.99819343471235   -3.16530649395175    3.19637580959263
H           0.70850513907445   -1.63558443578188    3.26051740422548
N          -1.52522265365916    2.01396625375367   -2.15598688950860
H          -1.42026385775067    2.80246899975856   -1.52479006252578
H          -2.00623056542152    1.19394027100755   -1.63336591816026
H          -2.05306435180651    2.28276792299961   -2.97954832445437
