    26
        -50.46327890  Gyration_radius:  2.36770260471 Dipole_moment: 4.810
 S          -0.55348358086378    1.34520627135235    0.11003674770921
O          -0.36890826989229    0.21126896073539    1.02714808104115
O           0.20053247800895    1.11058921139057   -1.12490469665664
O          -1.96674794543117    1.55538864418067   -0.17158847270279
O           0.00558734251319    2.59631397870503    0.79459204314581
H           0.90257620366374    2.26212432174763    1.17554643394097
O          -0.84665201597154   -1.06299075790784   -2.16092274454479
H          -0.31824513130071   -1.63122916472454   -1.54848942827606
H          -0.45670149819698   -0.16979187195173   -2.02281073153816
O           2.56946719226639    0.03489517180999   -0.81274181927223
H           1.69205053971667    0.46123721571505   -0.96830385494822
H           3.09948396253488    0.24042147035128   -1.58441457004218
O           0.64588692385607   -1.94054598461001   -0.15222689418927
H           0.33467635990603   -1.16642987950646    0.36470439551183
H           1.54171071316926   -1.69258351744451   -0.41369290772294
O          -2.13527281950125   -1.73320082719435    1.21807203671128
H          -1.53311411214730   -0.96798335825982    1.36527246317999
H          -1.55759316672701   -2.47998117346016    1.03238763576706
O          -2.95297840746514   -0.60747619760387   -0.91379307576603
H          -2.80480993185272   -1.15294795968823   -0.05733179682263
H          -2.68538820968253    0.36329969977638   -0.63053813113818
H          -2.14126119132259   -0.88009416852474   -1.55876687475336
N           2.14915936264392    1.49604445591421    1.67860410415570
H           1.74971771724527    0.81456464211083    2.31114703771677
H           2.88371010826596    2.00260221988270    2.15491045810514
H           2.54659736658045    0.99129858720647    0.88810453138619
