    26
        -50.45685502  Gyration_radius:  2.45734767294 Dipole_moment: 3.964
 S           0.89979664859510   -0.35092288818610   -0.35906576094552
O           1.62513949971760    0.14579884587250   -1.51362878574361
O           0.31256442286841    0.78344103097921    0.39481414826125
O          -0.11953174537733   -1.31738486212148   -0.70276570146775
O           1.89111058201602   -1.04232297969441    0.62197304610213
H           2.62352166694428   -0.35957443066898    0.72731131783294
O          -0.44382762924138   -2.63389769527733    1.59844835450579
H          -0.39623034663868   -2.32590380514570    0.67323574690911
H           0.46661368426211   -2.64598753598265    1.90234456383141
O          -3.31829092773579    0.30450080781426    0.19006241507744
H          -4.00362175631723    0.83391804964765    0.60271150900752
H          -2.71564632076211   -0.00905921462983    0.93902668154988
O          -0.62009556539321    0.17734413398799   -2.92006045151914
H           0.32079755155945    0.24840808984494   -2.64700327072806
H          -0.87274960005184   -0.70531568016921   -2.61828604656174
O          -1.59283356987457   -0.23268934712706    2.02904443928273
H          -1.34780392048495   -1.18093782860956    2.04848731701834
H          -0.83600217912863    0.20535145738575    1.59845626154123
O          -1.55518234987295    1.59641697388598   -1.04044853882452
H          -2.36364755650939    1.07856170505838   -0.59909980043821
H          -0.75405075197956    1.37966884901592   -0.40206110705075
H          -1.29005402798790    1.09559005666092   -1.90896936612978
N           3.45912640957721    1.01022377298353    0.46071279394534
H           3.08909693166849    1.05256941275888   -0.48600536279979
H           4.46599330694939    1.10442502343875    0.42862104766702
H           3.07580755320743    1.78777805826770    0.98214453969553
