    26
        -50.45685496  Gyration_radius:  2.45717481107 Dipole_moment: 3.963
 S          -0.19422922416296    0.53723699376137    0.85806704323666
O           0.59902865046447    0.59423704144841   -0.39396255806817
O          -1.02684407516671    1.72051914921107    0.96975779731207
O          -0.94775474299076   -0.69496673975584    0.92900798339954
O           0.84541057947518    0.51964473644948    2.01655334802987
H           1.25028805856330    1.44054114772995    1.97554567123867
O           0.91716991133104   -2.45072282240877    1.68591490493799
H           0.10569718962230   -1.94248299407025    1.49527844948903
H           1.42150180860391   -1.89617595155257    2.28546812225479
O           1.50853409951862   -1.90810155181496   -0.88852253972601
H           1.40568877899936   -2.33019011027491   -0.01057961820376
H           1.36191667106636   -0.95915461399633   -0.72084426551461
O          -0.55264445037293   -2.25390341306139   -2.39829665950394
H          -0.22285413022695   -2.54165557129955   -3.25191478071442
H           0.24500770246249   -2.24423613443211   -1.77697504115576
O          -2.89559052669088    0.55398708520669   -0.50204024575101
H          -2.83562594591152   -0.27092479281742   -0.00216665036977
H          -2.39772264896625    1.19192693894708    0.05487282184082
O          -1.05911446333235    0.19556774903492   -2.21081590278510
H          -0.92984556423309   -0.84376041201946   -2.35172364280566
H          -1.91823676798220    0.33785752802683   -1.64762050798937
H          -0.30120945485554    0.44197969828901   -1.53177331825092
N           1.45575650725730    2.97772113979966    1.48482541702882
H           1.68440870657770    3.77115095763808    2.06952024144815
H           0.47365049136551    3.02672324133943    1.22402238074147
H           2.00761283958901    3.02718172062869    0.63840152989621
