    26
        -50.45310623  Gyration_radius:  2.52597656007 Dipole_moment: 1.454
 S           0.71589267752291   -1.27643230502721    0.62420894178947
O           1.22529002325511   -1.37733722645236   -0.73370983859161
O           0.76697202329392    0.09503585471715    1.11995379564967
O          -0.62731465030272   -1.82933366067611    0.75474095155331
O           1.62667855478838   -2.14220980513603    1.54992674301904
H           2.52273634447823   -1.85633413525752    1.28417290652449
O          -2.83080565631213    0.10590377944085   -1.53955476853331
H          -1.86160497692939    0.19080459641788   -1.83273979419740
H          -3.18969741468164   -0.63492053501790   -2.03160506870821
O           3.67593768895174   -1.24219169039672    0.14445651603203
H           4.24499234869482   -1.88246052060849   -0.28902487077867
H           2.87336960898379   -1.16281964520029   -0.41261030735109
O          -0.36394085372936    0.22421928800653   -2.20616901533285
H           0.00561358655800    1.07444174676706   -1.86856725402477
H           0.18255920145800   -0.45972342316614   -1.77747075770842
O          -1.26349135305162    1.44024288054751    1.98813296455621
H          -0.43230757011662    0.99762890497317    1.66714014788279
H          -1.21931913253441    1.42642571457526    2.94605268035376
O          -2.64422606573398   -0.39554870838026    0.90041599183667
H          -2.79523244563791   -0.15229651428751   -0.11967570297259
H          -1.84178504781335   -1.07018513933910    0.87832129841868
H          -2.23795892492578    0.42926525953682    1.35102616262891
N           0.74853315227118    2.25777340354876   -0.81807098982231
H           0.95569137550774    1.57379281110062   -0.09226918871837
H           0.14572946564854    2.96054058177683   -0.40881784480678
H           1.61768804036913    2.70571849753875   -1.07826369869737
