    26
        -50.45449818  Gyration_radius:  2.52979813838 Dipole_moment: 2.886
 S           0.38383524366978    0.68586422773293    0.71555681502397
O           1.54513693787316   -0.13734809474710    0.43569709404639
O          -0.50448385723630    0.73687321093197   -0.48288773687759
O          -0.38360656906044    0.21405379743314    1.85683416571685
O           0.82689614043584    2.12434351142785    0.98878302676483
H           1.59833424025475    2.26841400451267    0.28918939788599
O           0.68777711193696   -2.35308790813195    1.53847700273810
H           1.16365568506877   -1.59240844081986    1.13507172142605
H           0.15591299961127   -1.95042706855621    2.23171260185502
O          -0.72561675924630   -3.03182839818746   -0.53399297129560
H          -0.20390485261227   -2.88378831536043    0.30833739357038
H          -0.08073364453106   -3.03300365966213   -1.24430815398783
O           0.56154104059695    1.80344379810034   -2.70813693179705
H          -0.10860695015882    2.40564635480244   -3.03528109942099
H           0.16726815455321    1.36299121408594   -1.92934896184009
O          -2.83252681902664   -0.61101581362739    1.82305493862849
H          -1.90224766921977   -0.29099474764795    1.96341583198325
H          -3.40513314109422    0.12372563118979    2.05009109661491
O          -2.23437902024665   -1.00979933718833   -0.61368413292818
H          -1.68078786663749   -1.89112656167131   -0.62782177338853
H          -2.63218094563763   -0.93636281966586    0.32696743357817
H          -1.49668375261360   -0.22679687231197   -0.61863324018627
N           2.62898608801367    2.14593764358327   -0.77840559597306
H           3.46721721742869    2.70936727568967   -0.81725662888377
H           2.13627983519663    2.19182982787034   -1.66936267127316
H           2.86805116261137    1.17549754024162   -0.60406860204527
