    26
        -50.45449838  Gyration_radius:  2.52952894876 Dipole_moment: 2.887
 S           1.03713380464736    0.19066060559004    0.14299417978114
O           0.83248798822024    0.64156234173890   -1.22060751190398
O          -0.22303653510722    0.35136858810796    0.92664724485821
O           1.47352713420385   -1.19400933887353    0.22264226293013
O           2.08668957914355    1.07118614475222    0.82361889389074
H           1.85793363903201    2.03105157810927    0.46101007955013
O           0.20009661810895   -3.14217695698442    1.34590810181037
H           0.79008547452360   -2.47173052238703    0.91002866020936
H           0.52780761614825   -3.24499457196489    2.24102188186355
O           0.38508928672766   -1.69903914588189   -2.30797230278049
H           0.94949395347134   -2.21783297952444   -1.72673229802046
H           0.58246205024434   -0.76807989648319   -2.05846715307717
O          -2.10945761720667   -1.74466386164083   -1.58075405475987
H          -1.17428531017740   -1.82671790767974   -1.93031226405217
H          -2.45778103455330   -0.93228000066471   -1.95366833806090
O          -1.15758275027004    2.85999894544537    1.16623441460744
H          -1.38122519255793    2.94914722887859    2.09398567022853
H          -0.86877954545958    1.93320121369933    1.04928833267021
O          -1.75341328588521   -1.57683845238258    0.91248267188437
H          -1.13182397118710   -0.69963778001048    0.95246856722337
H          -1.98513296282856   -1.68714031251454   -0.09623960931299
H          -1.09537606682603   -2.32790406151217    1.13908530948114
N           1.29768718483580    3.22398996596482   -0.23213781812684
H           1.82385738934109    4.06809579369010   -0.41163115332377
H           0.42211756919553    3.45193492784481    0.23705739230453
H           1.07142499421687    2.76084845465408   -1.10595116983107
