    26
        -50.45310610  Gyration_radius:  2.52583822701 Dipole_moment: 1.458
 S           0.15515589653651   -1.44403555605566   -0.64859279669538
O           1.06510393500821   -0.31175962967377   -0.78641962022185
O          -0.00429535452743   -1.84071900849101    0.74091035926203
O          -1.12209381813873   -1.16962812914704   -1.29674925477493
O           0.78087726683212   -2.64361598290227   -1.42698101018729
H           1.52554541899482   -2.89978996405361   -0.84813796689594
O           0.47425240591711    1.94590711455715   -1.90023560707460
H           0.86107422145269    1.93458858117520   -2.77773365773339
H           0.78296171415172    1.11320419247333   -1.45173992145514
O           2.30822723582287   -3.04281906630680    0.69286550879299
H           1.51184962439849   -2.55215845496213    0.98582007944988
H           2.27180859899147   -3.90052491127429    1.12258811322051
O          -0.99789125262086    0.33241865618523    1.98528612922923
H          -0.15806472990586    0.85012044097685    1.97403192455985
H          -0.75187257696616   -0.52838390086645    1.59964002030719
O          -2.73669734870741    1.59688701148065    0.59876160149835
H          -3.57049611086203    1.15949030201636    0.78116787687504
H          -2.04599617566256    1.13184152513393    1.18098277843096
O          -1.92802838934890    1.13624879462040   -1.71939273895212
H          -1.03009306843705    1.61583509536914   -1.82996116039118
H          -1.64599422164359    0.13255876130760   -1.60817296898620
H          -2.30646209711938    1.39703194106771   -0.76475906581436
N           1.40752590160755    1.45878014477586    1.48992339438487
H           1.49873797427913    0.79174457872883    0.72552006803469
H           2.21216475395580    1.34966739290171    2.09364466844665
H           1.44270020599790    2.38711006096072    1.08773322668406
