    26
        -50.46448228  Gyration_radius:  2.4520506338 Dipole_moment: 5.473
 S           0.09942994007914    0.92963815033535    1.80570596683531
O           0.26156510220390   -0.50929933107669    2.02741862632845
O           1.26349420899312    1.49211475735209    1.14727367612149
O          -1.14946104940470    1.25385281060164    1.16033167738865
O           0.04625938892675    1.58450451431265    3.24477073128702
H           0.95512683530985    1.49701479750148    3.50823096299179
O           2.39279157089785    0.21799754888673   -0.82519643624073
H           2.10031650335306    0.74536593675764   -0.04189012688989
H           2.07888306202792   -0.68578260164798   -0.63391508322573
O          -2.27418760426126   -1.25669927584256    1.55354469652201
H          -2.64930834940151   -0.37386953823718    1.47893282294363
H          -1.36336089918317   -1.09772262947198    1.86149361382483
O          -1.50309508182209   -1.76827968452393   -0.98384016373378
H          -0.57372675520196   -1.96603658799201   -0.78725993336949
H          -1.94277670208280   -1.74640193540269   -0.10637527681721
O           1.07722303426324   -1.97651399906568    0.04991177743907
H           0.77753502559060   -1.43511769984625    0.82660874576018
H           1.38675590393064   -2.80804539292062    0.41261225146241
O          -1.51853416524224    0.81081578834550   -1.40644175692111
H          -1.44060294006826    1.09245268224438   -0.46674676859102
H          -0.27416973849909    1.07158091775327   -2.04709858224517
H          -1.60881804319886   -0.18250539845696   -1.35829346032901
N           0.72871924668490    1.24645617208972   -2.52214415090215
H           1.47274458050280    0.80372950148053   -1.86307150542534
H           0.89672307244099    2.24432210596064   -2.59418139868540
H           0.76047382316073    0.81642838086272   -3.44038090553122
