    26
        -50.45449828  Gyration_radius:  2.52977668045 Dipole_moment: 2.887
 S           0.64141643635868   -0.71120102230850   -0.46089997730247
O          -0.11630450230246   -0.58796603351585    0.81918453680871
O          -0.19382667112961   -0.29601023943665   -1.57199201066660
O           1.87304432974591    0.05501021859780   -0.36025114266544
O           1.00020849677874   -2.19057444088272   -0.61210957731185
H           0.10849872989484   -2.61192122821613   -0.97611657663517
O           0.70374435798710    2.15442509713908   -1.79718616747379
H           0.30639311395333    1.25740225874909   -1.86988857572907
H           1.60636868391862    1.98379270478090   -1.51132766280747
O          -0.79564890566040    3.05850231745970    0.12331865307164
H          -1.67905089861952    2.81147569435474   -0.15770734219650
H          -0.19125229303269    2.82844894781836   -0.64174295908125
O           2.58292932873322    1.56719841865558    1.61171469822682
H           3.13923804679685    1.05676935796097    2.20270961877665
H           2.43059156181306    0.99652153355824    0.81251393249228
O          -2.33402600380254   -2.09150043192584    1.03246328410976
H          -1.56274329018079   -1.49495752577012    0.95978913860071
H          -2.27546421758341   -2.48997345910298    1.90226139029014
O           0.06857002785016    1.57741952619414    1.97561036780943
H          -0.05809435414266    0.61277650169016    1.51641491405174
H           1.08510097853404    1.69966370584506    1.96265717720812
H          -0.31452055313244    2.25031964172085    1.28005388957729
N          -1.26368557631193   -2.88638767800963   -1.48514646277875
H          -1.88762743095264   -2.85112494017872   -0.67999402512147
H          -1.49844828054537   -3.67636560553296   -2.07032141829314
H          -1.37541108507572   -2.02174331964823   -2.00400769299463
