    26
        -50.46448230  Gyration_radius:  2.45208624901 Dipole_moment: 5.472
 S           1.82408942678937   -0.07745157016910   -0.89510600620822
O           1.15762585549792   -1.36356708088261   -1.11352032298049
O           1.19105567698600    0.97732866996671   -1.66426471462588
O           1.98107325227707    0.23495978582971    0.50460113688264
O           3.28223350262553   -0.24136687814249   -1.48633225495309
H           3.09233057244664   -0.24216024138293   -2.41747120844823
O           1.35525334881027   -2.32480510818566    1.38647682749949
H           1.32933308540993   -2.13936820802674    0.43010687326489
H           1.91422337682201   -1.62667385328128    1.74118583203105
O          -1.43009185271934   -1.45234757892314   -0.95683603696162
H          -1.71987272730642   -2.26205047206344   -1.38017139284950
H          -0.44027306239691   -1.44240067988457   -1.03628382734549
O          -1.40766531788603    1.11881493011054   -1.79413657954426
H          -0.42316660382622    1.11537776795549   -1.88307633197673
H          -1.63028865123877    0.19329604007257   -1.58010265236403
O          -1.12501378816024   -1.34410185026308    1.81189893797225
H          -0.28514393122503   -1.85232292155345    1.82288950511913
H          -1.43354901238801   -1.40072906440428    0.89372101349740
O          -0.05401073084290    1.03477199256040    1.96710913042441
H          -0.86619269313592    1.84450548894994    1.12399825149143
H          -0.51691315614962    0.15328907780763    2.04394362494960
H           0.77687649386703    0.82998911815099    1.48117125638450
N          -1.50845986598431    2.44741019182510    0.42660219274814
H          -1.52935206276962    1.91664183754582   -0.52294454543636
H          -1.08974509265715    3.36129937023622    0.29007118669989
H          -2.44435602284305    2.54166122615378    0.80647008472955
