    26
        -50.46496725  Gyration_radius:  2.47813240476 Dipole_moment: 6.802
 S          -0.50321458921202   -0.34016760791294    2.09897624714812
O           0.87920936566433   -0.58531333052222    2.47881369985399
O          -0.61779433997841    0.97654084852289    1.44352212530210
O          -1.11487388159650   -1.38018822956769    1.32922969913191
O          -1.29490862136683   -0.20453132979637    3.46500859901668
H          -0.59678845773828    0.06711896763565    4.05088164758036
O           2.12566545119399   -1.21435359448320    0.30139062220344
H           2.75490193634384   -1.92161696440793    0.45141345078476
H           1.63437179349727   -1.09094439450560    1.15297695979052
O           0.23579682393361    1.33163555930978   -2.30585057388564
H          -0.68128824647465    1.37197804449205   -1.98492051044216
H           1.02346308071407    1.48001062462957   -1.06072670577158
O          -1.83512881813351   -1.60066788566781   -1.27193813287940
H          -1.64222692703108   -1.73792609923574   -0.32909613628456
H          -2.13728907632951   -0.68294958775884   -1.32042672870134
O          -2.05554220309162    1.16386059784233   -0.77615259719275
H          -2.84826144622190    1.66458181872764   -0.58053765396551
H          -1.57866531317004    1.05478879172713    0.07776528798702
O           0.65457895091274   -1.24321141664527   -2.15814391373487
H           1.16400173194135   -1.38224018572119   -1.34847283280468
H          -0.26492352728426   -1.52470094050682   -1.94120877193508
H           0.41072659967816    0.36011759350843   -2.45167856412457
N           1.49121170480682    1.40511575520928   -0.06663423436148
H           2.08848067067638    2.19569911070849    0.14587207366553
H           2.01238781295572    0.51410577008792   -0.02420164993921
H           0.69610952525207    1.32325810427417    0.62413860357978
