    26
        -50.46496729  Gyration_radius:  2.47817314172 Dipole_moment: 6.801
 S           0.92818815969098    1.52864150188005    1.25554005474629
O           1.73214764882579    2.05777575788920    0.16506083397309
O          -0.49887822828002    1.54643355115269    0.88177071212942
O           1.33995911858455    0.24972641662729    1.74852934483406
O           1.07214914464040    2.58170502237579    2.43102366293069
H           1.28699587161721    3.36864440211404    1.94220313598778
O           0.31220516702248   -2.24777240492010    1.54845331956009
H           0.85086632283766   -1.45800556651319    1.72485858866774
H          -0.59955492837534   -1.93618547067706    1.63456850398240
O          -1.95305953025477   -1.31051110327878   -1.27060843374209
H          -1.35457385563288    0.00595046806339   -1.59038082350651
H          -2.16261727629826   -1.22619523630075   -0.32475751990570
O           1.85433409496944    0.18533940583739   -1.61528524983152
H           2.72798817481874    0.13159625012167   -2.00573252292385
H           1.91141307347218    0.86035026269831   -0.89218846675695
O          -1.96801468460789   -0.59960887644002    1.39635706901557
H          -1.39527638574698    0.19153384271685    1.27552981474929
H          -2.58475497338908   -0.38197420526293    2.09608735665642
O           0.47079664359524   -2.27397400053280   -1.11360016291110
H          -1.10969730550179   -1.84307975949979   -1.29694303898432
H           1.06307623380075   -1.52698426440253   -1.27374051949773
H           0.50005838981935   -2.42785198113911   -0.14034928312731
N          -0.76129670041342    0.93085152137540   -1.66064679540688
H           0.19575593499251    0.67592754790845   -1.95455745816319
H          -0.68540320497740    1.30384514739757   -0.67514451528654
H          -1.17280690518311    1.61382181076083   -2.28604759717457
