    26
        -50.46496723  Gyration_radius:  2.47816960005 Dipole_moment: 6.805
 S           1.55594971082085    1.36161899341109   -0.70712909671425
O           1.25569672163221    1.15042829538005    0.72175275437033
O           2.39528861380391    0.28154929957043   -1.20134324766194
O           0.37424464899047    1.61214376497746   -1.47454958784204
O           2.46547765965370    2.65818172300100   -0.76249341957317
H           3.33304379305839    2.27216746777966   -0.71042960662236
O           0.83696207823422   -1.75931159589594   -1.51269244954436
H           1.41463566912289   -0.95430216499759   -1.50950114762464
H           1.05426149791084   -2.24615891371534   -2.30917981696405
O          -1.23780569472911    1.49513442190755    1.55384159056042
H          -1.26744166833677    2.28158986629552    2.09977499040906
H          -0.31877524869294    1.43239394441329    1.20751961538568
O          -1.60423721405364   -1.23379063703276    1.74661888800455
H          -0.15103389338655   -1.41700595716318    1.52675479245504
H          -1.68720700118547   -0.26890996538192    1.83488228836227
O          -2.26073766829831    1.15459810593788   -1.04913637722848
H          -2.20221902275250    1.38339886955769   -0.11102049802241
H          -1.38670913822394    1.38736836126031   -1.40532512347627
O          -1.93412269896522   -1.48323429148166   -0.83366488466005
H          -1.04832351931594   -1.59347878817016   -1.20458034812374
H          -1.89925998126349   -1.42941963465768    0.81383022932339
H          -2.18851200504635   -0.55225790678165   -1.03476790911791
N           0.89547981165071   -1.41245207683373    1.18460332473001
H           1.52045222281698   -1.88243278162684    1.82916637128084
H           1.15753706299623   -0.39645552017036    1.06185256602644
H           0.92735525356284   -1.84136289959507    0.24521610227846
