    26
        -50.46496730  Gyration_radius:  2.47818180512 Dipole_moment: 6.801
 S           0.35605396956272   -0.84014942190606   -1.98548070949596
O          -0.92834228091154   -0.39042792772974   -2.49880413796149
O           1.11091048771695    0.30700068589770   -1.44640278276616
O           0.29182911655672   -1.92702867501142   -1.05659348574791
O           1.16919264732059   -1.32362652385948   -3.25690452158778
H           0.74624789217626   -0.81954845560293   -3.94345021119327
O           2.31818028667980    0.03600219320324    0.89832913133288
H           1.89899341041005    0.06950717845923    0.00856116086481
H           3.26447824258803    0.02464713118487    0.75072584648131
O           0.38208939483982    1.57090752837735    2.12880100458183
H          -0.14660967694942    1.92718610179039    0.79207378494833
H           1.19869006153667    1.08842248696002    1.91429107231552
O          -2.42817240558245    0.02320545342634   -0.43240141399938
H          -3.32653101524286   -0.27218266961584   -0.58837226811113
H          -1.90269278949938   -0.24436682725212   -1.22865987406755
O           0.65409511946277   -2.11978112806752    1.62011345322861
H           1.39035594597633   -1.49228307490624    1.61823218919919
H           0.46642513175607   -2.26866210605109    0.67799676411313
O          -1.31833667319116   -0.41260101638784    2.17387833745127
H          -0.28391903286974    0.85955899888347    2.34325296913895
H          -1.78322938284143   -0.38169798824968    1.32691955321905
H          -0.67386087677072   -1.15411334256059    2.09244414682637
N          -0.53326976698715    1.96509590293140   -0.23821584121742
H          -0.61565415742619    2.91143578705291   -0.59119670589002
H          -1.44142338133510    1.47292222723491   -0.25784896872354
H           0.13449971303027    1.39057745176570   -0.82128848290207
