    26
        -50.46448235  Gyration_radius:  2.45211093499 Dipole_moment: 5.471
 S          -0.68048549401255    1.22915594063005    1.47008625667964
O          -0.50585427672307    2.17727601529915    0.38589530893864
O          -1.73761525664572    0.26292455143499    1.16204845154839
O           0.54419754570192    0.59477871659334    1.89331985868389
O          -1.20620072416394    2.06380816166624    2.70683652760357
H          -1.87907335553166    2.58825703708544    2.28815844808791
O          -0.60740844878261   -1.90563987308604    2.27229019559699
H          -1.16606146392471   -1.17728258535085    1.94500495951920
H           0.13805836925137   -1.45718551034411    2.68317973957479
O          -0.52423585315599    1.35218409417015   -2.08560123159302
H          -0.58150523448401    1.78687388208776   -1.19959068936661
H          -1.01591468342562    0.51701595802791   -1.97292387910860
O          -1.70987926407920   -0.89467332848470   -1.15908008432706
H          -2.57961193973552   -1.26901553313801   -1.30820401732687
H          -1.75118515777098   -0.45509659213643   -0.26955962605454
O           0.35729338600886   -2.48909276892669   -0.18200427655134
H          -0.34464880454058   -2.05396573069313   -0.69134053202253
H           0.01955335717244   -2.50775627648035    0.73960339699013
O           2.13256530815248   -0.60423083572425    0.17273552160139
H           1.64864691559933   -0.10594937825976    0.86982974798844
H           1.57067088959994   -1.41466736703541    0.01562715057185
H           2.08213106728952    0.16029139919709   -1.02711398912619
N           1.99428943329586    0.75984843904617   -1.97312287623940
H           0.94266213530679    1.01324233386921   -2.09074657815128
H           2.32367665564689    0.21617684887525   -2.76369333107170
H           2.53593488394855    1.61272240167610   -1.88163446244484
