    26
        -50.46327892  Gyration_radius:  2.3677420042 Dipole_moment: 4.815
 S          -0.29904001072003    1.29113133515274    0.60931457476366
O          -0.64389083619414    0.14147963164766    1.45085794719949
O           0.46864198022143    0.83765143999433   -0.55950057218716
O          -1.49381442367505    2.01224576391756    0.19316717200571
O           0.59404461943826    2.23807041215029    1.41658278207270
H           1.49376622657800    1.73589787666249    1.43738202444082
O           1.23832250559003   -1.66064667984367    1.72384857446238
H           1.06870056927976   -2.15654791489315    2.52630114335294
H           0.51288666306259   -0.99287960732560    1.66245746470825
O           0.32820013247469   -1.78351557700772   -0.95895732408719
H           0.77774203889478   -2.18363441619522   -0.20390209849996
H           0.48252899879028   -0.82208929403660   -0.83551646510780
O          -0.66303530253734    0.43044429342741   -2.90264390444561
H          -0.12570001500528    0.74570269560606   -2.13993660921947
H          -0.39414996226226   -0.48261298150901   -3.04376759046469
O          -2.13877805095357   -1.39112610057586   -0.06909257905453
H          -1.75649295184324   -0.88184031356541    0.68153932297024
H          -1.33780870354547   -1.76185512809536   -0.51441520855913
O          -2.73823135609961    0.60039680743529   -1.43779245159611
H          -2.62448798593651   -0.31693104585645   -0.89461187248065
H          -2.33864881628958    1.29746315081645   -0.76809336075929
H          -2.03300670897103    0.55597303954589   -2.18173670116602
N           2.72157448637492    0.81087139338110    1.26953791219375
H           2.43593618485723   -0.13540826350127    1.51583266154033
H           3.58125444703906    1.03674175396842    1.75223673468045
H           2.88348626143210    0.83501771870132    0.27090840323788
