    26
        -50.45667393  Gyration_radius:  2.41282112088 Dipole_moment: 4.277
 S           0.08906348777074   -1.66968740859284    0.75244242234471
O          -1.26184948256145   -1.75855120444492    0.22907228747428
O           1.07124314218645   -1.48448329657613   -0.30748064963389
O           0.23260594194892   -0.67735260479416    1.80192227516961
O           0.38829562726009   -3.07032312015449    1.41848523449436
H          -0.14786083194821   -3.64147656433863    0.88027763257799
O          -2.19395056907937   -0.35828332548787   -2.07722309393637
H          -1.99495963432148   -1.12908874819251   -1.52870166968555
H          -1.32854357558437    0.01206910166011   -2.30642913714921
O           0.49252835912083    0.30012772028083   -2.11524950965089
H           0.70619258195748   -0.40948409708917   -1.45786452926270
H           1.10575406712668    0.18472276092576   -2.84287362391771
O          -2.79532891987023    0.43640237736184    0.40490207985592
H          -2.42507733017331   -0.45391783288192    0.56780437153797
H          -2.82830498931888    0.47373968855587   -0.57349566206802
O           0.81944468844079    2.28058959820378   -0.30789348961333
H           1.61485563521719    1.83322034973023    0.10696085813944
H           0.61630078257247    1.72823611059800   -1.08862292712227
O          -0.81794325986601    1.59128749598418    1.42520119812799
H          -1.71071454515869    1.26206320591606    0.99106735138802
H          -0.37262672224325    0.72013381280144    1.70642892305343
H          -0.16206785035772    1.98861065880217    0.66212544378110
N           2.61460209633395    0.68652155566464    0.79596617231593
H           2.21051995664416   -0.17772267348712    0.43584906760190
H           2.46493986885407    0.67074810162219    1.79762728890826
H           3.61288146504906    0.66189834793266    0.62970167526865
