    26
        -50.45326344  Gyration_radius:  2.48001194039 Dipole_moment: 3.061
 S           1.15963276906224   -1.04499124546086    0.89630485420761
O          -0.05698525489531   -1.82961524877526    1.11563088592857
O           1.65767556812184   -1.18370151239443   -0.45296849436594
O           1.00585679584102    0.32450949026366    1.33986390906354
O           2.25554780064358   -1.68218584858720    1.84452219437855
H           2.40409089489075   -2.53252972681330    1.44398600900238
O          -3.08071133154651   -0.96035522408526   -0.61967063985196
H          -2.21108602934188   -0.67259998824021   -1.01651308315498
H          -3.21767666063938   -1.86508567194333   -0.90652596429459
O           0.31290154619877    2.08241669884177   -0.61656950478977
H           1.01822208306144    2.06569883718929   -1.29496801651169
H           0.71072407069246    1.60114535655347    0.12875533203416
O          -1.26544287445709    1.56580057179375    1.88146040388456
H          -1.31805455850493    2.08424886625232    1.07021629196119
H          -0.34885481253983    1.21697228972038    1.89573726023416
O          -0.70380077629121   -0.26518281172568   -1.39037236444949
H           0.09314266148005   -0.75698618790882   -1.13835118284747
H          -0.47958434371874    0.67951458508351   -1.23379693402557
O          -2.21596979503002   -0.77444099281367    1.73561346771595
H          -2.69790302072967   -0.85213429238487    0.81522294519258
H          -1.30143797813464   -1.26014318363653    1.56354076478560
H          -1.95730728769051    0.22082406580122    1.85223040516031
N           2.38385235127458    1.15821176037408   -2.14032272470473
H           2.22766602867546    0.93229129753884   -3.11517232281554
H           2.27803277849304    0.29362538055073   -1.61154409193276
H           3.34746937508261    1.45469274479048   -2.04630935980114
