    26
        -50.45326335  Gyration_radius:  2.47995385408 Dipole_moment: 3.063
 S          -0.89762401730588    1.52226457701066    0.34218721814904
O          -0.61501449979001    1.12058018289135    1.72159532074647
O           0.27516869318620    2.04367459348160   -0.32145723990305
O          -1.58834575925331    0.48275880091056   -0.39145918049605
O          -1.92165545364493    2.72491994534209    0.44879750578284
H          -1.38825015382475    3.41622079359136    0.82713432923583
O           1.58677106462065   -1.64550171759448    2.36080227243130
H           1.67186357955985   -1.16874065000580    1.48794366492912
H           2.09805010654603   -1.13666969518748    2.99267115899715
O           1.54486675268941   -0.29458440838058    0.14698923100486
H           1.12439511823931   -0.75764547791141   -0.61198681092054
H           1.21832873166073    0.61717833408569    0.09647489942597
O           0.02209801042363   -1.11761130380581   -1.88973242405865
H          -0.66922840234728   -0.53255427169317   -1.53614437273439
H           0.48432576970300   -0.54969211572408   -2.53925717790984
O          -1.80356187525787   -2.06214788651744    0.29462274579730
H          -1.14665083969832   -2.41028438735743   -0.31935202155227
H          -1.97049628521832   -1.14557701484483   -0.01195745271810
O          -0.88927297511799   -1.22017799131579    2.49850109517329
H          -1.29223127476439   -1.68943984052909    1.66867083300733
H           0.11579540898120   -1.49103315010536    2.53653446068558
H          -0.84924833695659   -0.20658697152931    2.22748526200029
N           1.13893066074302    1.10883291922210   -3.01196594671763
H           2.14636638801432    1.18183528909097   -3.08628138852430
H           0.86717744051177    1.57903788579109   -2.14976241704406
H           0.73744213829934    1.63094357108326   -3.78105356478751
