    26
        -50.46327891  Gyration_radius:  2.36770321792 Dipole_moment: 4.811
 S          -0.35109442915988    0.94383207472784    1.05543338633243
O           0.94051432663212    0.28015588718011    1.25529762700472
O          -0.86316562556101    0.63851821578822   -0.28826451367507
O          -1.30940784292581    0.54195809938623    2.07570108757379
O          -0.14170984014563    2.45871001760686    1.14320760929998
H           0.32665150986994    2.67290577949756    0.25092250750785
O           0.42727324700487   -2.28681018056651    1.05089439562129
H           0.77054457290533   -1.40621440544120    1.32592292132134
H           0.43609331412897   -2.22838620853093    0.06413139652309
O           2.55224035311109    0.30387660681729   -0.81064785223973
H           1.98152683027947    0.29403028495844   -0.00441595544537
H           3.44903370325034    0.17830464386246   -0.49659175901811
O           0.37895664518252   -1.40161780343103   -1.44844734007197
H          -0.07738059505071   -0.59983641149965   -1.11345859862455
H           1.28437472087863   -1.10097891453058   -1.59731569374662
O          -2.63579556125640   -1.26359831831575   -0.70906932228692
H          -2.15028021936025   -1.78043567988188   -1.35947746954281
H          -2.14113800810060   -0.41596132100452   -0.62760492368619
O          -1.94061697680811   -1.83305486759615    1.67276483068659
H          -1.77050311665586   -0.84543928988397    1.97266161319575
H          -2.37713431819422   -1.72807025000832    0.75002749827365
H          -0.94539352581486   -2.17594423167792    1.47003639053551
N           0.95664932781030    2.72238265413072   -1.16135488414517
H           1.67190845259780    1.99878241781943   -1.21065317162996
H           1.33914866769545    3.59401066831620   -1.50339659636110
H           0.18870440768987    2.43888054227984   -1.75630318340798
