    26
        -50.45326345  Gyration_radius:  2.47995657679 Dipole_moment: 3.059
 S           1.29711820377963    1.10047404290886    0.58981854805560
O           1.72635111886666    0.88184824973498   -0.77247491795841
O           0.16892689746754    2.03055265040944    0.66727358616583
O           1.04942239311801   -0.11194516561911    1.34122734019561
O           2.49804492377967    1.82322521737579    1.32568050433575
H           2.69824083682415    2.54193322761326    0.73496139613265
O           0.09129138903404   -2.18733036066955   -0.13275084502349
H           0.57263046861985   -1.59230499148967    0.46696711670395
H           0.75487414079665   -2.39417834310939   -0.82184695222689
O          -0.75654476732569    0.01418565712324   -1.38921126771106
H          -0.60809238653771   -0.88833623843691   -1.02775830827988
H           0.09380413828691    0.46877948391997   -1.28505228444600
O          -3.01459675606051    1.09468754344330   -0.71130202279446
H          -2.19768592203673    0.64127344907628   -1.06317567067979
H          -3.08901483250698    1.92046520770031   -1.19311365867806
O          -1.28662053247081   -0.96922301904608    2.23645106142795
H          -0.34363999082389   -0.71846722359337    2.13710797573409
H          -1.43133600122349   -1.64901019059585    1.56812084012662
O          -2.03482653338559    1.35989749553845    1.59069007493711
H          -2.56039715566651    1.27523695006295    0.69517816663731
H          -1.85813059470232    0.39604666255010    1.92367277386566
H          -1.09270737118715    1.70188949018583    1.27867199321953
N           2.14388417658519   -1.84013619287247   -1.90219541713642
H           2.14571105839909   -0.87256945945060   -1.58261294195508
H           1.95189355516918   -1.82507300178630   -2.89652706363951
H           3.08139954320077   -2.20192115097327   -1.77780000700898
