    26
        -50.46195498  Gyration_radius:  2.47354792338 Dipole_moment: 4.197
 S           0.14446203025498    0.47634414821053    0.82030522857511
O          -0.08519666328734   -0.81270334882727    0.13436870505184
O           1.55548293140872    0.69503994810955    1.06066321120592
O          -0.49857744397011    1.54684463097421    0.07764932232612
O          -0.59296527233848    0.38063356814759    2.18030213667316
H           0.07377876975883   -0.07274887202092    2.77968189685250
O          -1.20926577698266   -0.57253858636107   -2.09254815532038
H          -2.07112177988940   -0.06587768493246   -1.70891363026439
H          -0.72368685813944   -0.81938563902333   -1.21978253029584
O           1.04490315189011   -2.76228054477692    1.55559381921575
H           0.40776777023995   -3.47804636988008    1.57328383811776
H           0.68652196318153   -2.08884076023159    0.94169238325689
O           2.50004455851783    0.47935352694262   -1.40502441926703
H           2.19656996242645    0.50721565160000   -0.47302850155337
H           3.37324933173235    0.87570603133088   -1.41231002080908
O           1.39207196106851   -0.76326086035601    3.31700505145786
H           1.92314746624674   -0.20684417207152    2.72760902130296
H           1.37197833106500   -1.63946727929047    2.88042165774191
O           0.25540792388902    1.41699579492690   -2.47112440399975
H           1.16742071018577    1.08420063424100   -2.32027473280666
H          -0.60009651016261    0.21327849892324   -2.44402591840990
H          -0.01416246751439    1.74757197911697   -1.58917907765537
N          -2.97627915228958    0.79133094312897   -0.90320787701798
H          -3.60068214927984    0.31998517966830   -0.26210168107542
H          -3.49381816650733    1.51276586840030   -1.38826611738169
H          -2.22695462132038    1.23472773422089   -0.35878919586573
