    26
        -50.46555158  Gyration_radius:  2.45758399654 Dipole_moment: 6.214
 S           0.46996794211970    1.06452131589038    1.94039162934998
O           0.22127007024291    1.74097405465041    0.67657852310182
O          -0.58348300397259    0.14736767402323    2.31623604390829
O           1.78177702663682    0.43379671938081    1.96985031876631
O           0.48782097232834    2.20068661756602    3.04390780849550
H           0.45668794926860    1.66373431991466    3.82721860123294
O           1.94141313876624   -1.40604800870236    0.22281753761951
H           1.84876372874686   -0.70790706915096    0.93832494879536
H           2.60414582315258   -2.01612866766077    0.55083219755718
O          -0.34859197555271   -2.22127844615056   -0.89146891656525
H           0.47321718879258   -1.93145633870820   -0.43253082794554
H          -0.36771005609806   -3.17792058703782   -0.84514164861579
O          -2.02480710382551    1.42848167040070   -0.71073060445314
H          -1.29050610548044    1.74820535822057   -0.14508148948800
H          -1.22409964355050    0.72336654513329   -1.74471596913894
O           1.76026709277193    0.92946398336674   -1.30993614263975
H           2.12908294974429    0.12586599729270   -0.91513148615905
H           1.32086597729392    1.39092266362162   -0.56028768661157
O          -2.35445632156707   -0.83398290951013    0.59984742829704
H          -1.77817748732085   -1.43550094801455    0.10876624268433
H          -1.80408240793336   -0.51195165035670    1.34365625468092
H          -2.38716670072144    0.65361857887402   -0.21263087049663
N          -0.51561557920868    0.13053724740637   -2.34080655334998
H          -0.58848374121231   -0.84837433703691   -2.03380003120958
H           0.45454159133215    0.48391536891956   -2.06082891605194
H          -0.68264133476651    0.22509084767191   -3.33533636176813
