    26
        -50.45701994  Gyration_radius:  2.46200845644 Dipole_moment: 2.297
 S          -0.63004105490593    1.59836238678700    0.92204848899279
O          -0.62907483815866    1.60140612359826   -0.53773113110466
O          -1.79141152453752    0.93538628802924    1.46893840500246
O           0.63287546480846    1.11156908867385    1.45158342274727
O          -0.74175566936724    3.11247796383182    1.37129877519100
H          -1.68094034149283    3.17584780324745    1.50356104598024
O           1.10885012227450   -1.43870752191130    1.31764395541388
H           1.72458635999475   -1.67930746267905    2.01161841483871
H           0.94824881446410   -0.46578650715484    1.41375968670959
O           1.72284802546895   -1.14449541379978   -1.31248039280606
H           1.55944353170043   -1.45413883540428   -0.40024640132207
H           2.11390908485939   -0.22649553908533   -1.20526414429475
O          -2.27727209014353   -1.95519084836241   -1.09625597944535
H          -3.16936095805354   -1.61140025779084   -1.16525096612032
H          -2.06057609640417   -1.96892323084864   -0.11603516313167
O          -1.64270022702306   -1.71889095581717    1.39971730694099
H          -1.78824254524100   -0.75841967301027    1.52916061441024
H          -0.68250806251698   -1.84497170650691    1.45734675451686
O          -0.52097365611745   -0.40086093388964   -2.05809540186500
H           0.45730685555147   -0.80143264932819   -1.80972577060969
H          -1.23637105430446   -1.06539833870581   -1.72410787673188
H          -0.60217237431006    0.44183954676759   -1.48177720876868
N           2.32493308429628    1.37843781850702   -0.82570826248099
H           1.82595603915076    1.95701659661745   -1.49050673504720
H           3.23490331340268    1.79360967946635   -0.67090831108069
H           1.79953981660313    1.42846655874468    0.04741684405224
