    26
        -50.46195504  Gyration_radius:  2.47327290556 Dipole_moment: 4.183
 S          -0.23523281790936   -0.77764028753568   -0.50826741408239
O          -0.44826951931330    0.05574475407536    0.69372614914082
O          -1.20077517383168   -0.46201238465200   -1.54004645113192
O           1.14693886963224   -0.66545426053082   -0.94214820820794
O          -0.43649777012676   -2.24707641511873   -0.05776948666169
H          -1.42978659877611   -2.38201885404238   -0.12612007841225
O          -2.96961308184111   -2.13484529242097   -0.39179318270399
H          -3.22266490566867   -1.53754337337375    0.34170763167155
H          -2.74782957350375   -1.54233845547418   -1.12578592017083
O          -0.77707126989505    2.13955010572065   -1.80522793669123
H          -1.00271078665937    1.19177560453292   -1.69456201261532
H          -1.16202388017665    2.40899174991044   -2.64110116886894
O           1.52882517807322    1.47714330694094    1.28661831244565
H           0.63984254423230    0.97787062600345    1.14940228586402
H           2.21026266342690    0.65665130305365    1.37871522737805
O          -2.97149310409744   -0.22728308669985    1.50020758077518
H          -2.06275419993184   -0.00837356290381    1.20839012209739
H          -2.93276083603431   -0.32648879026647    2.45267374304675
O           1.78910909360073    1.90742714094954   -1.16152546074742
H           1.70825732651405    1.83588890792099    0.31114007853487
H           1.72849784788527    0.94076381046932   -1.30891962795181
H           0.90892623805046    2.23666276792890   -1.44824726666801
N           2.90793889404119   -0.64131595069374    1.19568362976134
H           2.76762120952099   -1.33954981227857    1.91388789009966
H           3.89025191433867   -0.61695050336655    0.95487278863623
H           2.37301173836364   -0.91957903813168    0.36448877532123
