    26
        -50.46195500  Gyration_radius:  2.47345275506 Dipole_moment: 4.190
 S          -0.44829819696672    0.68971597671521   -0.49052453778064
O           0.01850800529887    0.75315151603843   -1.85962183526416
O          -0.44222698990388   -0.70071602243116    0.01079229272207
O           0.29263546108772    1.54204179910113    0.42368343537434
O          -1.92313694138979    1.16348670771824   -0.43540134441848
H          -2.30959680155664    0.83777944480472   -1.30381294816000
O          -1.86640651351873   -2.21820565190952   -1.65238122125805
H          -2.41097901690623   -2.77693931701306   -1.09579194234056
H          -1.25842446005501   -1.73975423269405   -1.05216851322154
O          -2.46048642688723    0.16995912286186   -2.72988978657439
H          -1.54577012934448    0.41146123829179   -2.93953291163481
H          -2.42401738432330   -0.78691648299952   -2.52514142617025
O           2.38507568371756   -0.41064549598667   -1.60798979108954
H           1.49356904628481   -0.02840847535448   -1.75122563787897
H           2.89856601863432   -0.18699027994678   -2.38633400589309
O           1.02889985441199   -1.03447589689746    2.01199241303404
H           0.53498033744659   -0.30095212658726    2.61598230601405
H           0.41519454946939   -1.05295769195562    1.18649252257612
O           2.68134679665307    0.46298629918572    0.88300352616775
H           1.95527442423639    1.10355833543635    0.73368013588337
H           1.86234750499928   -0.51459189901549    1.62883058010954
H           2.81466748096219    0.05994330613454   -0.00287783844447
N          -0.19971607456122    0.90475987604585    3.07348062787742
H          -0.17835046866336    1.37945978638532    2.16316468034609
H           0.25218681224752    1.49726155033725    3.75785283016124
H          -1.16584257135851    0.77598858397126    3.34373839989218
