    26
        -50.46857991  Gyration_radius:  2.40027137937 Dipole_moment: 7.181
 S           0.77263194053584   -1.12164933080367    1.03454785770961
O           1.01436414676248   -1.12095230100321   -0.41863069728184
O           0.49475858551994    0.25615714222906    1.47984297432024
O          -0.25271202355130   -2.04926559691701    1.41510532250445
O           2.10362610453932   -1.54926432368743    1.71423243262297
H           2.70372179708311   -0.79500865054009    1.54206909076681
O          -1.99674292781093    1.00362658645624    0.94136998616626
H          -1.60275545293375    1.36175570532698   -0.42534247646876
H          -1.12835774901188    0.78430687721560    1.34374446816315
O           1.39378456445213    1.43850034495729   -0.60855492803115
H           1.02740071342417    1.22874387171024    0.28880261531431
H           1.52597583219865    0.53060811264408   -0.94245261319671
O          -1.02502230792854   -1.18140410885887   -1.98958688693634
H          -0.85607874715310   -1.82472910385462   -2.67909405251359
H          -0.24581070862860   -1.23868574647364   -1.36724800668251
O           3.38907768593983    0.74761499853740    1.27456385156178
H           2.98679843360823    1.16190092947558    0.49487754980124
H           3.04988677194243    1.22314555100074    2.03720451432592
O          -2.61691770948440   -1.47261360891383    0.33814645259925
H          -2.43393303496999    0.12025335197526    0.82185112874728
H          -2.33465123395614   -1.53217251542753   -0.58435596634749
H          -1.86282259544782   -1.83065891496287    0.84990577723211
N          -1.15137709145557    1.46885342201952   -1.43271462979242
H          -1.22351592299928    0.53527073306130   -1.87918943735181
H          -0.13199976152714    1.66491674550026   -1.26434146960847
H          -1.59932931915077    2.19074981935908   -1.98475287766599
