    26
        -50.45615573  Gyration_radius:  2.50489572518 Dipole_moment: 3.788
 S          -0.77527858906250    1.92285994565656    0.68764759103173
O          -1.99816307351056    1.25186756899479    0.31561991979495
O          -0.47337689002098    1.85760848337433    2.09919689102701
O           0.35114210299099    1.49457573734063   -0.14721840752426
O          -0.96253840912451    3.46031123299686    0.33987784354081
H          -1.52890829782619    3.72174157997435    1.05666255040460
O          -0.55121747786305   -0.50955739243172    3.21856098672427
H          -0.59743936824006    0.38774141997040    2.81315347016803
H           0.00035694983165   -0.41752288143090    3.99717237218302
O           1.89816226032395   -0.49376611779002    0.25261071144372
H           1.37913998885741    0.36566208214741    0.18663341706966
H           1.97282475954419   -0.82632718785129   -0.73186188549486
O          -0.47434818577805    0.44935283430685   -2.41739734406876
H          -1.22140414308279    0.95232267948345   -2.74563952930119
H          -0.17070786776422    0.92234736379745   -1.60794236005273
O          -1.59911808082011   -1.23059709077217   -0.52285274988571
H          -1.91986242845344   -0.40172366258576   -0.11049610920821
H          -1.20881581710299   -0.92847689311412   -1.35842342356646
O           0.19746222753154   -1.99165299931642    1.19178222553997
H           1.16571610081446   -1.22491806250379    0.73537335229385
H          -0.10817647511673   -1.55410435999251    2.02879038685078
H          -0.54486988945504   -1.83686141916878    0.53699176398872
N           1.84698589375163   -1.28388330502416   -2.20050456903411
H           1.07650859919544   -0.71708357058958   -2.54846603086944
H           1.58858670351015   -2.25838966917675   -2.28874646846751
H           2.65733941696598   -1.11152631633436   -2.78052460464275
