    26
        -50.46857996  Gyration_radius:  2.40031645804 Dipole_moment: 7.181
 S           1.50004970442539    0.42102663360861   -0.70525931083312
O           0.40549767346411    1.40369706282331   -0.60445379179117
O           1.41778402598475   -0.51309852786618    0.43078018529621
O           1.52617221195378   -0.25865110618740   -1.96779410207415
O           2.82689627499598    1.21450430474423   -0.54304560044717
H           2.66894872611332    1.77045201732213    0.24729916308198
O          -0.19482516753196   -2.51249414188394    0.24878788456105
H           0.48223896110514   -1.77852494330070    0.27021322848544
H           0.26243354315141   -3.29827094120914    0.55100057794059
O          -1.91619526933267    0.40933092780845   -1.42774130479000
H          -1.10014520605729    0.93210992680807   -1.27015654947815
H          -2.13337972226692   -0.19669750189562   -0.10985168037579
O           1.99236314950680    2.74056872342936    1.48085444548343
H           1.55093963484573    3.41085816479751    0.95262436351369
H           1.29174359920258    2.25378564655465    1.94303125714940
O          -0.17627053463986    0.96092801500789    1.85163471729734
H          -0.12468785279590    1.32720414550115    0.93141261266775
H           0.50358971463316    0.26365000305983    1.78368750408437
O          -0.67787381443250   -1.68020235252319   -2.41751777684230
H          -0.59917061331650   -2.25309879721837   -1.64295252713703
H          -1.60551277005600   -0.35781376022779   -1.97616739857300
H           0.17758068182225   -1.20565935132459   -2.46054302148899
N          -2.07225617124811   -0.66534796283919    0.89346765468384
H          -1.53316265946626   -1.54248965393418    0.76719046206718
H          -2.98488466601070   -0.83446234840756    1.29972630588658
H          -1.48787345404062   -0.01130417263563    1.47377270160397
