    26
        -50.46662475  Gyration_radius:  2.47252685876 Dipole_moment: 5.606
 S           1.66010207453877    0.48674072384825   -1.34489202059585
O           1.72230610262708    0.05570417638940    0.06063176478862
O           1.80580611015732   -0.59746188553763   -2.27861302100816
O           0.52694111906390    1.35690629783471   -1.56173003251322
O           2.96547129625242    1.38407455889800   -1.54009643810371
H           3.36562134339348    0.96142116805168   -2.29280225569876
O          -0.60878270262476   -1.51987927962944   -1.52714945711373
H          -0.26313023111561   -2.10080285764262   -0.83510611264658
H           0.17181574039087   -1.16086116535781   -1.97616238850329
O          -1.47974401444492    2.23845064103273   -0.19137986571599
H          -0.75663878461122    1.90147978714146   -0.78073631855798
H          -1.80699901555662    3.03815317599619   -0.60477824293195
O           0.82260836768809   -2.33993192460385    0.74105295907361
H           1.53112043339931   -2.98407762338777    0.75885094589498
H           1.23001650336164   -1.48217372023439    0.48527010574973
O          -1.29143217404183   -1.13916586625406    2.09062461688725
H          -0.55356312279677    0.16494133607699    2.02665474267917
H          -0.65022706818076   -1.77479984199665    1.73444847322267
O          -2.57490396705337   -0.36729223917596   -0.06812173991587
H          -1.99604891991973   -0.79040453995939   -0.73216210304163
H          -1.92773341865327   -0.96320640322603    1.34622803784980
H          -2.40360733145530    0.58097040203226   -0.14999973684797
N          -0.00181410527456    1.07036186664884    1.75759812344377
H           0.76116750333684    0.75100360753709    1.09664383887418
H           0.38536586623285    1.54175066477408    2.56663124507939
H          -0.63371761471402    1.68809893073513    1.21909488965026
