    26
        -50.46662464  Gyration_radius:  2.47256084366 Dipole_moment: 5.606
 S           2.02306514222741   -0.08061824706186    0.83904424682057
O           1.93266981097153   -0.64289506481331    2.15980265187297
O           1.43335103177196   -0.93988394013176   -0.19984404961508
O           1.55735576571898    1.28026150729467    0.70002107375263
O           3.58214163388804   -0.06365545340649    0.49835941290489
H           3.95364843165928   -0.34227458033103    1.32877874756261
O          -0.64024799021337   -2.47784380248498    0.38771511446616
H           0.17663114020756   -1.97025340420073    0.18206578063398
H          -0.35957138549495   -3.36256599998548    0.62372833841142
O          -0.73084778128191   -0.25723491573890    2.09892588243708
H          -0.93194438626256   -1.13218864080619    1.73858557852190
H           0.22306593724758   -0.26266981484864    2.27162441180723
O          -2.25448562169033   -0.87914689992991   -1.21513370032208
H          -1.90795932072210   -1.58655211707332   -0.64807729602662
H          -1.01679231399985   -0.28893413057726   -1.82164892505174
O          -0.12503374569819    2.57207210923036   -0.77715998772288
H           0.50205604620782    2.12616236923426   -0.15123752017676
H           0.10557944706199    3.50169498179466   -0.76527011935239
O          -2.28268942098183    1.18271870014754    0.41288459994537
H          -2.46628195140378   -0.12792821302562   -0.59794577971836
H          -1.79166593347174    0.77942316266218    1.15530285842980
H          -1.67415627639639    1.82808369546993    0.02753105171634
N          -0.05426830603572    0.17907721991394   -2.04848032794930
H          -0.12101624680002    1.18616174684730   -1.82001055640924
H           0.23125673049974    0.02949892144172   -3.00907391904589
H           0.63613956299695   -0.25050917964277   -1.37048757789490
