    26
        -50.46662474  Gyration_radius:  2.47250720478 Dipole_moment: 5.606
 S           2.08085955701596   -0.66728948089535   -0.16197761831656
O           2.07296283758397   -2.04454957895334   -0.57619460805722
O           1.33427872004610    0.21713261067671   -1.07063465238994
O           1.70647148880096   -0.42034397442378    1.21173108887738
O           3.59817199017114   -0.19508676627047   -0.31089688234138
H           4.02408193020095   -1.01800535048186   -0.52715286068473
O          -0.54864398911703   -2.17078994178556    0.02160438195216
H          -0.84695800032025   -1.92687161835161   -0.86574287316942
H           0.41431177218628   -2.26038568184916   -0.04560820406497
O          -0.78206835041859   -0.71211334625294   -2.36244683488818
H           0.04676589810485   -0.38240636651421   -1.94833888111794
H          -0.54571011294004   -1.02110808825548   -3.23759976989200
O          -2.41783433117502    0.91413489557176   -0.80937490988179
H          -2.07254924372499    0.30440764113336   -1.48096732748563
H          -1.20253596161293    1.68625017004261   -0.38966246649643
O          -0.00556006054821    1.04368299502961    2.47944577380125
H           0.64243900873409    0.42779011624481    2.04983610954950
H           0.29344034215502    1.15448987052553    3.38267619378686
O          -2.13838978405306   -0.47279807955773    1.40462847277014
H          -1.61146032946018   -1.21081783317801    1.04034529593816
H          -1.52251165139777    0.03141716916838    1.95391514390094
H          -2.51417077198205    0.36769792396292    0.01649799680661
N          -0.23378748217874    2.04435795525292   -0.02927052312818
H          -0.05102330353022    3.00340239923561   -0.30036022686237
H           0.48358926110264    1.38438578108806   -0.44250671560500
H          -0.20416940363717    1.92341657884043    0.99805490699146
