    26
        -50.46662472  Gyration_radius:  2.47256172753 Dipole_moment: 5.607
 S           1.43398682706248   -1.59855337324682    0.43689510350563
O           1.17215522693909   -0.93661862108265   -0.85095548198826
O           2.53498296376568   -1.02018054823152    1.15925854908298
O           0.20791728175674   -1.76428297538378    1.18356913495735
O           1.92217055194445   -3.06397852676026    0.03496055839169
H           2.75135037585642   -3.11316869142364    0.49903719555130
O           1.04979695806013    1.18463689516530    1.58303230171482
H           1.35870188837629    1.64511818031541    0.79030903183722
H           1.57617413430667    0.37195564589495    1.63076940499919
O          -2.27511874270787   -1.09170831978721    0.93152330246520
H          -2.80772210904952   -1.67278955460953    1.47578016949685
H          -1.33130260953016   -1.34158346405888    1.10645597937220
O          -1.08853870989142    2.11824026784293   -1.28984386846694
H          -1.29171767868598    0.65216705942418   -1.53149731951757
H          -0.12245291079814    2.21175983226638   -1.29332631450873
O           1.64750251935040    1.65460452725652   -1.11662986442912
H           2.51832136363963    1.81152582479145   -1.48313228366627
H           1.54293611887464    0.67897716496794   -1.05031237113908
O          -1.59646530551940    1.63721582749349    1.24265795574469
H          -0.67613928074334    1.51499547456847    1.54774345698139
H          -1.34960391795052    2.12759395515051   -0.32973160042680
H          -1.99105858421240    0.75464723054713    1.26756729493249
N          -1.31604277588738   -0.44140346067329   -1.51879904999904
H          -1.63302329557711   -0.83105238958056   -2.39876504392843
H          -1.91110784306212   -0.74401603402578   -0.72807184617550
H          -0.32570243631059   -0.74410192682243   -1.29849440478575
