    26
        -50.45198920  Gyration_radius:  2.60476753169 Dipole_moment: 2.744
 S          -0.54278922611884    0.41562482864600   -0.20153150568983
O          -1.36848785162782   -0.73701770188194   -0.48288775261578
O          -1.00476783056624    1.05555228169187    1.11290370579419
O           0.86627005839905    0.09309870229159   -0.11018506594359
O          -0.76038673053468    1.50448505196546   -1.21637470638722
O           1.00661860554523   -1.28147132231906    2.25495329754446
H           1.19183856890185   -0.50982861033939    2.83190929973169
H           1.13196033640277   -0.94360662150804    1.35367625608565
O          -1.59231557981963   -1.41466353894325   -3.04484291448526
H          -2.52911769852060   -1.41171508918498   -3.24972780109744
H          -1.52112595440939   -1.30198815494040   -2.07402868051137
O           2.18603733508110   -0.09968797025040   -2.41396035565889
H           2.95701047109556    0.46682978738778   -2.35003730286919
H           1.78927442330473   -0.12912772912489   -1.51906763031340
O          -0.09571597779869    0.70556244937119   -3.43702559413349
H           0.82825129396339    0.39764554907902   -3.24920634893789
H          -0.64521251529158   -0.11864674467882   -3.49731665305589
H          -0.47115361487598    1.20113957221372   -2.26345323165142
O          -1.58478619810267   -1.10260711712330    2.22071565164493
H          -1.83036694810115   -1.52217156396741    1.38649533395693
H          -0.62675272733115   -1.34949268829084    2.37776014933618
H          -1.33587850995146    0.24231371054736    1.67677064057127
N           1.05588816114035    1.20028571738239    3.42874856277875
H           0.43768168861032    1.54814898936694    2.70297637153295
H           1.87946588005193    1.78822575430260    3.44727683068476
H           0.57856052055429    1.30311245830768    4.31545945369062
