    26
        -50.47076542  Gyration_radius:  2.4789761529 Dipole_moment: 4.775
 S           0.55699187314827   -0.17931588932773    0.74619429650407
O          -0.80009775450095   -0.01545478065893    0.18962689830150
O           0.95501896827996   -1.57125795153458    0.75458413543243
O           1.48873076709125    0.69372362829391    0.05515056959239
O           0.48210648403500    0.33500128099173    2.21256125860618
H           0.19212997992806   -0.46646011920416    2.74337371204764
O          -2.47142847983081   -1.49661915610609    1.63374053311979
H          -3.15122971062336   -0.88410522163977    1.91933486090413
H          -1.89757404540511   -1.00192343316374    1.01175789659731
O           0.73739098729697   -1.95646022105114   -1.86523000160116
H           1.17509082492183   -2.78926619967400   -2.05293437428057
H           0.78161339099762   -1.84396571173334   -0.89325955365311
O          -0.27353574863360   -1.93795265327310    3.12221720522028
H           0.28070215759705   -2.29139112196490    2.41006791738896
H          -1.18383387020968   -1.95392549870325    2.76088106514329
O           0.45830810894211    3.11985708298350    0.08710568942610
H           0.13039229592886    3.28383995794711    0.97251968788629
H           0.98571280930638    2.29224477746416    0.15042124917678
O           1.53704351581135    0.48361323160581   -2.63957157296082
H           1.27686427498632   -0.45999577305923   -2.59469875080468
H           0.19475114243150    1.22862387018662   -2.34564220918679
H           1.89815657681021    0.65563573250271   -1.75246195573846
N          -0.66354209638676    1.61668380902224   -1.82605161797690
H          -1.45885622999749    1.78160475755231   -2.43210442106600
H          -0.36916084487795    2.46271711821651   -1.29705322109599
H          -0.86174537704084    0.89454847433062   -1.07052931697587
