    26
        -50.46662476  Gyration_radius:  2.47234557727 Dipole_moment: 5.610
 S          -0.40094675597566    1.40887997382675    1.62910334232408
O          -0.89722242459614    0.65933340253342    2.75179684366646
O           0.90115310481500    0.92873382452414    1.13994137968409
O          -1.32431054757255    1.58584326280014    0.53169446150214
O          -0.09360787601970    2.86608391985435    2.20294995364801
H          -0.43880337730918    2.78989069695135    3.08630765299257
O           1.50380808684717   -1.64338869423119    1.31881354035178
H           1.32052093842564   -0.67717098056464    1.32052753803213
H           2.00207572292003   -1.82823304582462    2.11559274909244
O           1.34218304595657   -1.85191344978811   -1.44935660803454
H           1.48988837456448   -2.02530600431376   -0.50587064390310
H           1.39757784045797   -0.35602677522781   -1.53579366434024
O          -1.34753982276207    1.16227914091383   -2.01791608005732
H          -2.01964389591162    1.71664932851440   -2.41599301006854
H          -1.41566022319405    1.30878571750508   -1.03925255670921
O          -1.28723470537257   -1.44823298120820    1.12257860087236
H          -1.34722480143080   -0.69383229013930    1.72843289967124
H          -0.41492845927033   -1.83576707227447    1.27990878840741
O          -1.27276637634668   -1.63156738337497   -1.57745194201482
H           0.36154992908305   -1.95236825602359   -1.58446664427374
H          -1.45812553092887   -1.62422760311190   -0.61797104880888
H          -1.44485031537809   -0.72791390062755   -1.87588894622882
N           1.26675809291146    0.72677151548503   -1.45000196279698
H           2.04841895634040    1.24234044566443   -1.83707971819735
H           1.15498724056535    0.91713113628535   -0.41455083437047
H           0.37394378920007    0.98322606185118   -1.90605410044646
