    26
        -50.46814480  Gyration_radius:  2.48533468282 Dipole_moment: 4.351
 S          -0.91516040520291   -1.00220855883323   -0.31828398349293
O          -1.74280296005533   -1.64525481908474    0.80335967629635
O          -1.19541682736822   -1.69394209391596   -1.55039406403240
O          -1.26101510712246    0.42309841625207   -0.40072608910468
O           0.51125799994774   -1.12367945701639    0.06180539652607
O           1.54806085093236   -1.61223263423581    2.45778658175140
H           1.59168136910433   -2.56459267400054    2.55817485106367
H           1.25973271114616   -1.44828925158642    1.53568158599780
O           0.34367815420259    2.49871825788865   -0.86696367328666
H           0.43358601145584    2.80240148523588    0.04187211266971
H          -0.38596138037991    1.84405152551315   -0.83289916964559
O          -0.96845739445010    1.84080034422867    1.77512604496978
H          -1.12497904897991    1.29418997751082    0.96681892230955
H          -1.80560415505222    2.26300962011868    1.97514890948305
O          -0.06162080409971   -0.43639574422108   -3.51537302621393
H          -0.52066069422727   -1.01886984317600   -2.85523517422001
H          -0.72332886281837    0.19822527235191   -3.79753986504778
H           1.11732438169745    0.09750929177218   -2.55815286077064
O          -0.89069414844195   -0.59046165122262    2.96402830394481
H           0.03147318162840   -0.91970802974348    3.00206439450426
H          -0.82746577462689    0.35839859046947    2.73735369222340
H          -1.44651502163425   -1.24350400630259    1.68977859556570
N           1.67079295404938    0.36389032820017   -1.69542746351012
H           1.31179607423130   -0.29558069689286   -0.93086614303448
H           1.37949240180075    1.33277639086734   -1.40879061249717
H           2.67080650426597    0.27764997982222   -1.83834694245101
