    26
        -50.45970349  Gyration_radius:  2.52348367128 Dipole_moment: 5.545
 S          -0.79108378926223    0.87373600624539    1.57087917247693
O          -0.70431699251436    1.84444098669831    0.49367427278642
O          -1.99978358277886    0.05597709308019    1.45444816313306
O           0.39101768389594    0.06656840866060    1.74228647238727
O          -0.95405573664139    1.71402819413600    2.90601324054907
H          -1.65218148898240    2.32986061659356    2.70433817994352
O           2.95133192410656    0.98079632305154   -1.59856182822864
H           2.13497944889338    1.50095143684159   -1.76531857403758
H           3.55900528576139    1.57294037045529   -1.15392135511717
O          -1.59483423648257    0.20700419504178   -1.40298084190690
H          -1.27979207721842    0.81956150446669   -0.70796049085940
H          -2.50434398953547    0.01192077277346   -1.16902229597499
O           0.62872926656873    2.31779599341187   -1.84486668353218
H           0.01968017011960    1.79653589400652   -2.37549175320586
H           0.25081390436189    2.31733313584272   -0.94990831094260
O          -0.19879331995664   -2.10794816912138   -1.21291820790747
H          -0.68216960911517   -1.29837087556300   -1.47697896921842
H          -0.62465526019335   -2.31973682326310    0.16450284536483
O           1.96430302203307   -1.09526371329413   -0.17354552039436
H           1.54379455521220   -0.59650764052881    0.54625130069210
H           0.72438082299358   -1.79943014981791   -0.99722505399265
H           2.41006032931358   -0.42743343889754   -0.73343340275700
N          -0.85756555115304   -2.25647889999483    1.25165259111371
H           0.01146988780339   -2.00041841033142    1.72554965089224
H          -1.26524428182751   -3.10515272408250    1.62842981800908
H          -1.48074640545608   -1.40271007645193    1.37410758072819
