    26
        -50.45701988  Gyration_radius:  2.46198152349 Dipole_moment: 2.299
 S           1.27925327978625    1.33143686309882   -0.62618732445718
O           0.56989469539679    1.56240174869913   -1.86347452040852
O           0.46996573001862    1.65316354342949    0.54538748527553
O           1.86385399528029    0.00522536133906   -0.51835078546125
O           2.49234826390877    2.34893755458968   -0.62344091165675
H           2.14802980797648    3.01717567755779   -1.20514776741151
O          -1.17857327344873   -0.34708358940915   -2.47074170266745
H          -0.76203743677049   -1.11222431985566   -2.04386774068648
H          -0.53236468975179    0.38451534035502   -2.38331683868433
O           0.30856731245401   -2.04569079888821   -0.87058698841677
H           0.93732274356291   -1.28791018251875   -0.76127700108089
H           0.83384245973863   -2.79002528003276   -1.16835058998434
O          -3.03618295393983    0.47929184417146   -0.87250509387235
H          -2.39416510484856    0.10408891549706   -1.54714054166431
H          -3.27878317639700    1.34930127217413   -1.19348587400988
O          -0.65799781233533   -1.69263323344311    1.64402032190639
H          -0.43798590770620   -1.99188258008646    0.74027774272675
H           0.20958073367649   -1.35778995922040    2.02120065375186
O          -1.66910901572895    0.53789013941651    1.26131551565185
H          -1.32234048752320   -0.47006360437869    1.46828418922962
H          -0.82158148388334    1.04594536196742    0.99188736078380
H          -2.27912491625290    0.50521907333861    0.42955710706998
N           1.60250075928996   -0.48631695275167    2.27654216623617
H           1.86541951032294   -0.27889355101006    1.31284240658254
H           2.41218524241070   -0.86666984697886    2.74996277569591
H           1.37748169481196    0.40259120293167    2.70659589554411
