    26
        -50.45760678  Gyration_radius:  2.4951682072 Dipole_moment: 2.750
 S           0.65377023532725    1.05719621259023    0.69071865162790
O           1.78035962667186    0.36719946127073    0.09254022375294
O          -0.32637220035424    1.43906151686591   -0.34095837027605
O           0.01447059073471    0.26941538608578    1.73775069015544
O           1.15137727361347    2.36529987384822    1.35493882589115
H           1.58442064995816    2.82298080942666    0.58414071601858
O           0.17154494092768   -2.37887452357410    1.76579781499937
H           0.22232665802395   -1.39947847258615    1.82267993885158
H           0.84130908866430   -2.71586409084385    2.36220565009938
O           0.86007277705280   -1.94496095720126   -0.84605811010488
H           0.63383113896117   -2.35406293787912    0.00807849765030
H           1.28131230755132   -1.09322494900213   -0.60518985877161
O          -1.36833892324956   -1.65820830945158   -2.11876793700232
H          -1.14768635594253   -1.36764205071782   -3.00497446243074
H          -0.49265421693270   -1.82564422961813   -1.65241827274219
O          -2.36069505176597   -0.88752879564207    1.67601692872823
H          -1.58661293044753   -0.33402018107727    1.91586129914229
H          -2.02082497422509   -1.79032658207965    1.67628133022393
O          -2.39138429177549    0.12134541062400   -0.65122687670985
H          -2.05426752156621   -0.62321237692878   -1.29194580567592
H          -2.52565221198700   -0.31716053734754    0.27279346759783
H          -1.54543987987061    0.75376049153365   -0.51963054370404
N           2.11917754205288    2.95887125536355   -0.98448548953309
H           2.35824106133917    1.97126667981859   -0.99620254061710
H           2.86816783125081    3.48997450239734   -1.41018065294436
H           1.27954684597928    3.07383739412535   -1.53776513422541
