    26
        -50.45520832  Gyration_radius:  2.55203149131 Dipole_moment: 5.902
 S           0.13723035962640    0.56987863327535    1.51573409604941
O           0.37484731079591   -0.79342622205343    1.02976808675580
O           0.11217104122152    1.47817022184326    0.24311773486338
O          -1.09716876423580    0.69817584119799    2.23724325631190
O           1.31703682079084    1.05547247806033    2.25227617069657
H           2.21511037224829    1.28819918809224    1.24293700649551
O           2.67325390187726   -1.26667722883983   -0.03269912551383
H           3.14785778466079   -1.84700290860434    0.56487180866437
H           1.77075615241148   -1.14120409211104    0.37947787283459
O          -0.19501144462567   -2.27333594746975   -1.12400667660893
H           0.72418233390668   -2.34404508900603   -1.39280587790098
H          -0.17921646438427   -1.79762179210795   -0.27130959111085
O          -1.68665431041762   -0.72601919580425   -2.71716638590408
H          -1.12640691253589   -1.32589252666883   -2.17429187581093
H          -2.51652729084404   -1.18927385832762   -2.84339031568672
O          -3.27091911298682   -0.12821181470566    1.01249013727556
H          -2.46802814220192    0.06071955890704    1.54861722645395
H          -4.00060750408794    0.26619551166713    1.49352011816682
O          -2.07976222689226    1.24185381281771   -0.94799832303312
H          -1.91655839285277    0.60766583584700   -1.68447062928076
H          -2.64047008716516    0.75504462412273   -0.30278967477322
H          -0.80658260067271    1.40908099055948   -0.23980796211539
N           2.79285373138524    1.36136879995327    0.26365828068375
H           3.64031813052511    1.91505351680164    0.32218079070014
H           2.10921684639081    1.76709424831686   -0.37607692027110
H           2.96907845805089    0.35873741423865    0.00092078206990
