    26
        -50.46100986  Gyration_radius:  2.4198607609 Dipole_moment: 3.550
 S           1.01321026911480    0.66756722312375    0.63589116845166
O           0.64679609009796    0.98363801075236   -0.75224927560229
O          -0.16767863626442    0.62837043001135    1.48243680541730
O           1.75806491093931   -0.58419826557321    0.69820591999683
O           1.94859123954097    1.79106737772325    1.14120712413909
H           1.37729441765855    2.60023405007655    1.01102471026949
O          -0.20763542805528   -2.27475274715202    1.22938524373183
H           0.56794095254161   -1.68707531585830    1.10438424049641
H          -0.65372557790458   -1.91638611014610    1.99971269612013
O          -1.72221434358301   -1.76058968510223   -0.90343568293386
H          -2.13743454887538   -0.91782560232629   -0.59874787819953
H          -1.22788719626702   -2.09871947422103   -0.11846839842990
O           2.01830739964959   -2.37102537132002   -1.21744470876981
H           1.67394267123679   -3.15383142078583   -0.77906805736444
H           2.14550251897573   -1.70335862018770   -0.50637400185397
O          -2.44608163010174    0.53037621337750    0.21885787532792
H          -1.57612379161847    0.63025531141102    0.67807285247486
H          -3.11041878717740    0.49901399855576    0.90945882456766
O           0.17967371378957   -0.94221528173861   -2.27226215708741
H           0.93981624859907   -1.57485886958327   -2.01753217995226
H          -0.70331686159839   -1.33173369940569   -1.78005520797385
H           0.38443376354160   -0.07647055023058   -1.73377518901821
N           0.05860225164625    3.46786479578840    0.50789861116945
H           0.02579995096231    4.42877637568695    0.19213473997509
H          -0.70122140464672    3.31372878713955    1.15785748482966
H          -0.08423820220035    2.85214842998303   -0.28711554978083
