    26
        -50.46489351  Gyration_radius:  2.55410616915 Dipole_moment: 4.639
 S           0.28030371465449   -0.15345076765068   -0.76143808926097
O           0.54814419770031   -0.95456063564880    0.43324167807282
O          -0.87020066422184    0.74650636678457   -0.51804860664837
O           1.43568293484681    0.63116958930403   -1.14767912960448
O          -0.08200122224967   -1.08309991696166   -1.91983540466112
O           3.61694346301350    0.82503486345949    0.32205075228707
H           2.86793676174573    0.74198480341377   -0.31116381832514
H           4.23315036640802    0.12911123828632    0.08976039397700
O          -3.33257130710489    0.17244274297699   -1.38431055416806
H          -3.35258414969011    0.52437545078547   -2.27587961752814
H          -2.48152997734324    0.46061155834699   -0.99596587615495
O          -1.44166000557996   -2.46691710517835    1.27385667103860
H          -1.04277068729952   -3.28244042977160    1.58178861114880
H          -0.69669280684503   -1.86795929667240    1.04654912465594
O          -2.21106485682852   -2.26668378332142   -1.27581766620304
H          -2.83550980006684   -1.51161539970246   -1.31645706136430
H          -0.93970559291152   -1.61637018073701   -1.68508818677881
H          -2.08258400866028   -2.45001169251758   -0.31853129086442
O           1.69367124108062    0.66305327966972    2.16264832451409
H           2.58251790343516    0.70326383220200    1.74990005586920
H           1.03554515411602    1.80246655552446    1.46212269091085
H           1.24401286518594   -0.06762812848253    1.67818976995432
N           0.56572262772341    2.47029339221235    0.72340785720547
H           1.27364583129434    2.71369903745241    0.03213649927929
H           0.14218895063566    3.29377927755547    1.13945499326215
H          -0.15059096303700    1.84294533867055    0.21510790938633
