    26
        -50.45268444  Gyration_radius:  2.5718264697 Dipole_moment: 2.985
 S           1.19366216926186    0.24735062983030    0.32856161874488
O           0.44604603147638    0.88835104457796   -0.77204622780722
O           0.99779233985671    0.97553766841920    1.56972831845596
O           0.84209130100330   -1.15708494539223    0.43785154066958
O           2.69465798619400    0.31280562140206   -0.06597584077242
H           2.86643986282321    1.29201991531296   -0.09703234162326
O          -0.49282607292029   -0.81950695346282    2.79112322028748
H           0.06096185326158   -0.04707621049378    2.54862598249278
H          -0.10256552803000   -1.52977306898189    2.26828965703862
O           0.48704365660111   -2.54336382939110   -1.74256325099717
H           0.59022005728054   -3.44966504830002   -1.44638895250213
H           0.69578575646813   -1.98214436003617   -0.95688537593061
O          -1.89888591617501   -1.67402769876619   -2.36944804645716
H          -1.83984794349377   -1.41563272673147   -3.29128700938311
H          -1.01216956011748   -2.06397863789981   -2.13777062502874
O          -2.65862736978507   -0.20401997502060    1.48578496294609
H          -1.86305188664596   -0.50076174120296    2.01777416439325
H          -3.03193520119479    0.53954076025806    1.96245596490105
O          -1.95785183018960    0.39320611051023   -0.88438835370815
H          -2.00519233367482   -0.45217242492753   -1.47023906693537
H          -2.25954367124131    0.13255265066266    0.06469883158630
H          -0.90905153498476    0.64386776109404   -0.83445976827537
N           2.45715023731295    2.90613530439283    0.08796019911342
H           1.87515564361608    2.66035229864770    0.88434691201025
H           1.83732415479236    3.10761699214711   -0.68649706930598
H           2.98721778848492    3.73987087334408    0.30778056607743
