    26
        -50.46100991  Gyration_radius:  2.4198819754 Dipole_moment: 3.548
 S           0.90413153845965   -0.18653431769931    1.01211596661391
O           1.01754188848075    0.95270196297212    0.08999131769161
O          -0.45088742518169   -0.29796613626442    1.52605732443577
O           1.33266500686326   -1.41882128770059    0.36133600722226
O           1.86436869798914    0.07195233531197    2.19689920657401
H           1.52874510363907    0.94875173015864    2.53829025590741
O          -1.00143692664834   -2.34583165776457   -0.47329413737879
H          -0.12046145602777   -2.08758993142464   -0.12729621784577
H          -1.56581326836527   -2.35727276540211    0.30269541059465
O           1.75994164133164   -1.78766672909447   -2.21000030841180
H           1.81218568804252   -1.72182570804764   -1.22996020724811
H           1.15508735296160   -2.51268456775885   -2.38899440099049
O          -1.71346019079958   -0.25750012869358   -1.96971603021297
H          -1.54062378115829   -1.11806024581494   -1.51758178990626
H          -2.01926815266397    0.34934416341300   -1.25297080164209
O          -2.24869992896862    1.09283878923144    0.24885118216698
H          -1.54307597049352    0.62232623351208    0.75711907407767
H          -3.07365836444434    0.90279509010231    0.69895635144914
O           0.62252696308555    0.49824286933473   -2.33388522394846
H           1.13578524272276   -0.37704895429839   -2.44969673267965
H          -0.42326974233786    0.22028772595055   -2.28237581039517
H           0.83619080600414    0.78544548947254   -1.35757703545638
N           0.60982401866817    2.32748144727803    2.54930865933953
H          -0.31787928451974    2.09944702641414    2.88230478959733
H           0.57697846140957    2.35276238872545    1.53447740344505
H           0.86256211194979    3.24442520808651    2.89494575700026
