    26
        -50.45520841  Gyration_radius:  2.55159753145 Dipole_moment: 5.902
 S          -0.59837535362549    1.36022684482713   -0.65857063366197
O          -0.13466853638579    1.24325599366010    0.83022891540728
O          -0.05446310252354    0.18146901664733   -1.34108032290563
O          -2.03062307081306    1.43196927694372   -0.72443711305501
O           0.08644290314426    2.57648555551783   -1.12965668497701
H           1.31511636533119    2.46941232388796   -0.53086752848513
O          -3.35434701585944   -0.68348187673890    0.10048171232948
H          -2.89222403497440    0.06455580342108   -0.34075080188791
H          -4.25353919304861   -0.38267053779853    0.24296171151235
O          -0.23640800884563   -2.74888607471567    1.77077039606817
H          -0.87950239082203   -3.45983233168711    1.75724926164935
H           0.07298209277005   -2.65159564524875    0.84165766008595
O           2.50804512824148    0.04716368463137   -1.56722498417125
H           1.50923742929622    0.05381659674395   -1.51678771555378
H           2.71710406339511    0.15975965668199   -2.49606963303664
O           0.51783721539958   -2.36710396310799   -0.76734091399425
H           0.11337852668762   -1.51326046943876   -1.01452456144728
H           1.46314590502084   -2.24345235844048   -0.88251581680741
O          -1.54388896820300   -0.43185949017975    2.04972330003599
H          -1.01641358043509   -1.26426570655979    2.06200238320506
H          -0.73530823077759    0.57238201460871    1.35120386611286
H          -2.28727062817402   -0.60207312961144    1.42844940886270
N           2.25820447432403    2.14937393952656    0.02241330392626
H           2.61793615191349    1.33920064320152   -0.54284111737965
H           1.89667491084170    1.80984789800782    0.91415350855629
H           2.94092697813094    2.88956237522876    0.14137239960282
