    26
        -50.45268398  Gyration_radius:  2.57191753588 Dipole_moment: 2.980
 S           1.15762622615212    0.37960874836742    0.32471425417639
O           1.79487473000751    0.49313104211083   -0.97532328137321
O          -0.06888416342255    1.20072095199559    0.37437744639340
O           0.86958437808093   -0.99495388146337    0.69327194306926
O           2.11205420603457    0.95211185160380    1.40849556521325
H           2.28229170883467    1.87512515363816    1.07922057409411
O          -0.79920636363919   -1.45737018571497    2.64315533608394
H          -0.58267634918058   -2.35242184977182    2.91095159228636
H          -0.13014420912783   -1.21646064838674    1.95729718834721
O           1.25655888463482   -1.93736851735870   -1.83515788570289
H           1.21119379164069   -2.26945315992853   -0.93078472904197
H           1.59025811297492   -1.02348822758750   -1.71040512319806
O          -1.22036740752401   -1.39821861841851   -2.42421490399241
H          -1.18641547974264   -1.00925588098608   -3.29990507480546
H          -0.28264669990864   -1.68017984347644   -2.21184796491182
O          -3.02799793051222   -1.02553613481339    1.34431006596130
H          -2.20383891477945   -1.24469280016145    1.85888867220357
H          -3.53133663733744   -0.42450841132088    1.89693579011899
O          -2.07171530619010    0.22142571629463   -0.65883817073795
H          -1.74911174729844   -0.45178453263653   -1.36782110019792
H          -2.50544065504433   -0.31433552002321    0.10613913557334
H          -1.19647107590172    0.67870944627442   -0.22390391874891
N           2.15648752042701    3.13845430787572   -0.01402322463747
H           2.75470169557640    3.92012749920694   -0.24970566950108
H           1.20573499055997    3.47199216819142    0.08278735646622
H           2.16488669468893    2.46862131650279   -0.77861385315136
