    26
        -50.45701989  Gyration_radius:  2.46198974438 Dipole_moment: 2.299
 S           0.57280866733693    1.84484243782303   -0.26432232317249
O          -0.51913152980384    1.33874234966605   -1.09048211939100
O           0.12265073517964    2.26677631820702    1.04210986841291
O           1.68881633476006    0.91433717296885   -0.23325570488361
O           1.10781639367493    3.15033732614943   -0.98291204979946
H           0.61695990343920    3.81198534364665   -0.50879368910978
O          -0.08742522171083   -2.32068047804430   -0.77988665018730
H           0.40582876796073   -1.86552743345163   -1.52593446442474
H           0.43672059801347   -2.12522500437778    0.02122551214874
O          -2.62229611445074   -0.39349503335915    1.78274081726632
H          -3.18138616101578    0.37055823039724    1.93250603987275
H          -1.75216177101590   -0.19453489116704    2.24247880210168
O           1.43897940823724   -1.24291350829076    1.19260043694914
H           1.58162269566389   -0.41712391217439    0.66418416100591
H           2.30886059156454   -1.54726657109882    1.45580745513747
O          -0.30554838937223    0.25699700423076    2.73021693812737
H           0.32793129993855   -0.39618910919437    2.39373933194713
H          -0.13069331213442    1.07629862917437    2.22167322770399
O          -1.94520352517451   -0.68548134669283   -0.64248833095816
H          -1.41526716055011    0.16607639372591   -0.84993095068898
H          -1.20640687698877   -1.47953776796122   -0.69385470793427
H          -2.26981073483158   -0.60896659786314    0.33415629202565
N           1.11043969627546   -0.71535450415049   -2.49842451302401
H           1.43796308582605   -0.05666770749114   -1.79150062481351
H           0.39696185919120   -0.23031937413185   -3.02893005113158
H           1.88097077997990   -0.91766797654081   -3.12272273317468
