    26
        -50.45268417  Gyration_radius:  2.57214822131 Dipole_moment: 2.982
 S           1.17097868663153    0.46879998320819    0.03505340119209
O           1.36252758315014    0.86062688379388   -1.35012171870519
O          -0.03681883208790    1.10985292628364    0.59292930181826
O           1.11469094559696   -0.97133346708017    0.21053858163157
O           2.36954276201573    0.98444924142679    0.87819096498442
H           2.36065092395008    1.96116257008222    0.69010339753706
O           0.17166370615327   -1.93587495100820    2.44252785277577
H           0.57517132055672   -1.50962182343558    1.64782034615972
H           0.52562224137185   -2.82693924570571    2.46425149074992
O           0.76171694505107   -1.45656563387784   -2.44848281662583
H           1.04999217490464   -0.53796508786432   -2.26118739340585
H           1.02468470625036   -1.92581803399262   -1.64790165138008
O          -1.80851470052637   -1.15528332165705   -2.17278998037382
H          -2.08001623511529   -0.63866543998458   -2.93351901880655
H          -0.83276142117943   -1.34330512025037   -2.30183141385181
O          -2.37613250427130   -1.59300519294703    1.96083077062343
H          -1.41892868368481   -1.78336565415295    2.15991460847413
H          -2.72404100965842   -1.15275021106890    2.73869644816750
O          -2.18436159009083    0.05663582168377    0.03089423696319
H          -2.31842201123574   -0.64000179960850    0.77710041116513
H          -1.25266792908970    0.54833318298426    0.26617600889918
H          -2.05019401651446   -0.45427015902324   -0.85250405269758
N           1.80876282771484    3.35086878382434   -0.06550446421098
H           1.62964923067222    2.81292304747934   -0.90923205552383
H           2.24439795456765    4.22918790286296   -0.31692843175368
H           0.91280693486215    3.54192481802006    0.36497517618721
