    26
        -50.45520865  Gyration_radius:  2.55112687801 Dipole_moment: 5.903
 S           0.01663207666237    1.22226465982202    1.07519241869860
O           1.15376447550789    0.55003038279545    0.43792524921844
O          -1.24120077019074    0.81866173902710    0.23828683418971
O          -0.16068265353950    0.83949087467251    2.44737638714560
O           0.10795030580140    2.67744295704907    0.86446540286669
H          -0.22174393747787    2.80139076634071   -0.46053216236293
O          -0.65584227712196   -3.07355139653491   -0.93437432384635
H          -0.47881960968320   -3.91749771465762   -0.51539087534194
H           0.20836331426723   -2.60364094058477   -0.96346069521907
O           1.79090651186024    1.33522708291074   -1.93103158324613
H           1.59380696532632    1.00008356616884   -1.00953244884015
H           2.63457024653462    1.78554324781530   -1.86342810110737
O           1.64768547402471   -1.71434989228974   -0.89861238110889
H           1.50200267182274   -1.01097948699655   -0.23713942191020
H           1.84449324092101   -1.25521200613542   -1.71875188454041
O          -0.33185211565748   -1.73864953437204    2.92859724470262
H          -0.13510141643798   -0.78314140205491    2.80172252192122
H          -0.70609984037152   -1.80994828599453    3.80851122378920
O          -1.94954854883683   -1.51523600980929    0.81352027807468
H          -1.56031644810148   -0.13779762029582    0.49378589559187
H          -1.57916961152372   -2.08992365857426    0.10377139087056
H          -1.42434651246195   -1.72195666910021    1.61908701975586
N          -0.47404994972986    2.65522159377573   -1.56187770741783
H          -0.75173804901373    3.50495328662338   -2.04043296749398
H          -1.22390266121456    1.96367038547440   -1.53555780238548
H           0.39423913862375    2.21790407493125   -1.96211952198507
