    26
        -50.45268413  Gyration_radius:  2.57200410603 Dipole_moment: 2.980
 S           1.02471625143327    0.54612026424877    0.49290054362897
O           1.94345637651974    0.49110298616970   -0.63044025421238
O          -0.22403153127201    1.23436260457774    0.10814493775001
O           0.73768455506565   -0.76317507033922    1.05080702569782
O           1.66122049093279    1.39573466593819    1.62696236022987
H           1.85122848331155    2.25802642041225    1.16899282823008
O          -3.19652554297155   -1.07004134863719    0.81432337020048
H          -2.50607733245024   -1.11051271731381    1.53111868799979
H          -3.84967701870089   -0.43467466304785    1.11376064126174
O           1.76357174426638   -2.09510520172999   -1.09548490783155
H           1.52541831694051   -2.26531817339465   -0.17647325186787
H           2.00527329239482   -1.14458080500596   -1.08088122675751
O          -0.53097752323559   -1.92281117888550   -2.31145516026555
H          -0.31378225855711   -1.69600350008751   -3.21734831264806
H           0.34482299873933   -2.06571354875522   -1.84617542205298
O          -1.31704440489830   -1.03925907067036    2.63290109431747
H          -0.51921655609294   -0.85726937233428    2.07934176234827
H          -1.11992635147770   -1.84682237274675    3.11106017519161
O          -1.86604360699092   -0.10851819299402   -1.13191208982949
H          -1.14586082044875    0.50432325553991   -0.61170750619578
H          -1.34734803467080   -0.86103427917573   -1.60556265607268
H          -2.43739564435710   -0.54067400339689   -0.39238205563895
N           1.91552776176851    3.28772998724080   -0.15097186245526
H           0.95151864591830    3.53592289975261   -0.33438310719432
H           2.14242233863469    2.49694671083540   -0.74803611189047
H           2.50704537019824    4.07124369379490   -0.39709951195637
