    26
        -50.45153978  Gyration_radius:  2.45981766953 Dipole_moment: 1.663
 S           0.68719305838300    0.07292861952192   -0.61653502868539
O          -0.38530516320617   -0.29793627318291    0.29503557893699
O           0.23540344708027    0.91321933774465   -1.70227931134376
O           1.81470471789410    0.67161190552382    0.12041218598780
O           1.27606010712215   -1.25414675676556   -1.18741221948922
H           0.62176728488646   -1.67043239256499   -1.83051793350395
O          -0.11500747075485    2.72045922290411    0.25611436075168
H           0.79272029914000    3.03600861527645    0.27194133868766
H          -0.14571587338944    2.11350681840612   -0.50460458888200
O          -0.36935464733657    1.69762967026417    2.73174430446140
H          -0.28858543471091    2.50669404736274    3.24118228861609
H          -0.44583438169522    1.96826237955265    1.78772146363383
O           0.66909141503788   -2.12312934169274    1.77701343251399
H           0.08668551641919   -1.55354367898197    1.21222481092247
H           1.24457256982179   -2.58774507730150    1.16425721438132
O          -0.47074771445290   -2.17443172433996   -2.84319123377118
H          -0.22977032572504   -1.81115777529297   -3.69819380462599
H          -1.25876627044990   -1.64343390153867   -2.52954354306134
O           1.63034765529593    0.12158246152809    2.49878509866479
H           0.81443617090344    0.69836245370283    2.71854095651582
H           1.29316237767206   -0.84085274501525    2.40820676875237
H           1.81048278946217    0.38795517695305    1.44901026845622
N          -2.25060330404399   -0.46348479450231   -1.90528867938567
H          -2.27699152559875   -0.65205899962698   -0.90902485716214
H          -3.16263023301933   -0.12817733494197   -2.18977204598337
H          -1.57731509471976    0.29231005701883   -2.01582681536165
