    26
        -50.45153915  Gyration_radius:  2.45889549552 Dipole_moment: 1.683
 S          -0.75369850035019    0.44622132890321   -0.29847075155402
O          -0.46275895150570    1.00204423427924   -1.60048169116607
O           0.27579214890971   -0.47087260984352    0.16847556321614
O          -1.01608854940774    1.49093969415456    0.70804275079111
O          -2.08733719336626   -0.36124135579929   -0.35654259123098
H          -2.06120696752992   -1.00701205328411   -1.12942615735508
O          -0.79206086569155   -1.58714067614096    2.23128919133601
H          -1.71728139179137   -1.65220296481448    1.98145939645077
H          -0.30817780593590   -1.36286516334489    1.39587648434811
O           1.50797574630180    2.26199851668382   -0.27648321873227
H           0.91636337182370    1.77077222122262   -0.87370255951766
H           0.96968089723347    2.99058990000726    0.04477937995959
O           2.26255213211211    1.10099279103140    2.03088497698981
H           2.81135270706612    1.80418260647093    2.38444428973130
H           2.05016973968340    1.35235022474618    1.10252384027417
O          -1.89506729450175   -1.92452815396971   -2.39562885489954
H          -2.25817707138245   -1.42840912286185   -3.13256620983394
H          -0.90110816960913   -1.89455471749745   -2.50583423342132
O          -0.12920214995560    0.78506715741174    2.87794786823154
H          -0.37756933222306   -0.20687569131230    2.82880023760902
H           0.86740775099257    0.84909489389146    2.65597153317555
H          -0.58445914947452    1.16768497494303    1.95479268665103
N           0.69717728424050   -1.43199405028023   -2.52179279758289
H           1.03858661455472   -1.66284568017919   -1.59495154536809
H           0.50430673174888   -0.43271359795976   -2.49326325755690
H           1.44282826806972   -1.59868271639745   -3.18614433056100
