    26
        -50.45153917  Gyration_radius:  2.45889384885 Dipole_moment: 1.685
 S           0.67837831904369   -0.29240874686084    0.55782975680075
O          -0.33750807614236    0.40705572819817   -0.21525066736335
O           0.11910627361129   -1.25086137310408    1.48379490997466
O           1.68494080572047   -0.89856139495445   -0.33251095553611
O           1.47779687482101    0.79340726427625    1.34257048074865
H           0.90952794452703    1.16226639346234    2.08819113969438
O           0.97059060814280    2.30565288154695   -1.36644482150778
H           1.62383150914093    2.54433913347055   -0.70395000658078
H           0.31380413546658    1.73243441760426   -0.89476486561012
O          -0.54374613005481   -2.56659617913004   -0.76435240835560
H           0.30455425736475   -3.00189396988291   -0.88543667880295
H          -0.46612018666486   -2.12403091641416    0.09944352679197
O          -0.07329300003976    1.60405095851171    3.23355308697267
H           0.12025460905872    1.03666435385644    3.98297615575785
H          -0.94079080803731    1.27749579398827    2.85698804058276
O          -0.68423713185999   -1.04794543201234   -2.98124252750035
H          -0.74496322930836   -1.74285058999260   -3.64007308816512
H          -0.78363702710328   -1.48501914867097   -2.10414584738739
O           1.54583425935702    0.12644483612432   -2.55138607713476
H           0.64386578427455   -0.26370825837025   -2.83595866818515
H           1.36939125909293    1.09260318673280   -2.26230660724751
H           1.70085690704803   -0.36431745337000   -1.58165396852268
N          -2.11887016807939    0.41695786104453    2.05703882403126
H          -1.57769394871014   -0.44303829496771    1.99312204606193
H          -2.12024715741166    0.79993460427819    1.11774892900674
H          -3.07162667331055    0.18192432465343    2.30622028151221
