    26
        -50.45671243  Gyration_radius:  2.49559235603 Dipole_moment: 3.463
 S           0.46564197149445    1.05714681605065   -0.79431353849511
O           0.64721279565618    1.07638736338881    0.65802816555789
O           1.21012592470103   -0.05157845009371   -1.37978696955667
O          -0.95148363417992    1.00631359437657   -1.13744350541784
O           1.01296989045438    2.38924176013089   -1.36434141451839
H           1.98368982184194    2.32422403240593   -1.15780988154957
O           0.61059002369006   -1.32007366919554    1.73711944641518
H           0.70002605749074   -0.41647945222013    1.34723210659083
H           1.47363522304834   -1.55482016242960    2.08024409391631
O           0.02181276379110   -2.28900299068005   -0.71149375383023
H           0.12599098494409   -2.17330083806155    0.25524977664372
H           0.57801452670883   -1.56917915229119   -1.09563249326326
O          -3.49867604774933   -0.71684357451216    0.66218693234130
H          -2.82230702063848   -0.23272986606319    1.21127226800503
H          -4.18607576339405   -0.07716328886397    0.46741167825934
O          -1.62819347499544    0.52643881812964    2.01521780071505
H          -1.16755586286737   -0.17227493453079    2.49238279746096
H          -0.94246953430127    0.93467571283730    1.45273056434730
O          -2.10363860913572   -1.17686520670958   -1.40117733265099
H          -1.65638673333503   -0.23558483258945   -1.43115994105514
H          -1.28445657142859   -1.79066689563952   -1.12909186747096
H          -2.73339988483408   -1.10169596894319   -0.58539240836298
N           3.38877778634139    1.58706553272773   -0.63858702034524
H           3.42316448689419    1.60819107853532    0.37200893256406
H           4.32965611873386    1.67730664785483   -0.99922550037553
H           3.00333477105214    0.69126792638615   -0.92562896592178
