    26
        -50.45701724  Gyration_radius:  2.46352280294 Dipole_moment: 2.257
 S          -0.70561764506677    0.06683350533677    1.82168471974133
O          -2.01382975663958   -0.42727830243181    1.45814044605802
O           0.35723717009528   -0.91437033569925    1.67234030227176
O          -0.37141765132090    1.31584310867638    1.14607625774456
O          -0.78743617724412    0.40114091488500    3.36764040606201
H          -1.73100237656398    0.43512703389981    3.47556296337858
O           0.64333546899667   -2.04289224859697   -0.64804256505456
H           0.54490790957287   -1.65503593446055    0.25869269915645
H           1.05034435486949   -2.90255558693860   -0.52990107688085
O          -2.08887691288784    0.64260360953112   -2.34253327747073
H          -2.11947907753253   -0.25357437797805   -1.89122546896358
H          -2.90902574570421    1.08284570582066   -2.11389497391605
O           1.89661826833391    0.19353665414561   -1.54423429830759
H           2.31693753282380    0.41586086218250   -0.66030562102291
H           1.49417437554777   -0.68755116895974   -1.41461982628935
O          -2.05998050342214   -1.54092026766070   -0.95665345645532
H          -2.15702783865512   -1.19841653642074   -0.04354039001195
H          -1.15590856223371   -1.88907684103779   -1.00818825413618
O          -0.03886946614757    1.72360993697064   -1.31587365002917
H           0.81876083781961    1.08745726616200   -1.51901723741524
H          -0.86105097011580    1.31997103377910   -1.79104860184396
H          -0.19633088721282    1.61782962158866   -0.31053656930346
N           2.54822161585511    0.75696878763297    0.94996834660459
H           1.83731823250628    0.15504316431861    1.36619170301223
H           2.26381592190282    1.70910655874855    1.14537419305661
H           3.42418190241765    0.58789383649778    1.42794324000843
