    26
        -50.45153939  Gyration_radius:  2.45926308645 Dipole_moment: 1.679
 S          -0.14253350332102   -0.68643411453646    0.60391244340237
O          -1.56848314363871   -0.84819687572340    0.77531291547159
O           0.19808386702430    0.20615157246720   -0.49429466078515
O           0.52367501816435   -0.25987962886597    1.84788084682371
O           0.50965313640435   -2.06717859240865    0.28442909722874
H           0.01228119462270   -2.51310974647489   -0.46958950936411
O          -0.88747706742246   -3.10482805841192   -1.61586118538280
H          -1.33743066558378   -2.26993741499860   -1.93462798088942
H          -1.56777535219231   -3.62268388980063   -1.17985051420353
O           0.69097257678917    3.08918197899530    0.66464603338337
H           0.60368246709468    3.87757005788601    1.20455100292707
H          -0.13758352960015    2.57143258786294    0.79010363175983
O           2.73744340378434   -0.12129588782189   -0.78617405362510
H           2.85432031014413   -1.05454217178543   -0.59130349075239
H           1.76046765889728    0.00509746393419   -0.89560213716329
O          -1.45410141463051    1.72421994324156    1.54501274425125
H          -1.63030185392227    0.84241774516570    1.17148959880127
H          -1.20864673052936    1.55083919780867    2.45802581684800
O           2.36192176895961    1.26679867648467    1.31545598751127
H           1.58193418093360    0.56724947954995    1.64355388910760
H           2.70507102697843    0.80403020510743    0.46920575937651
H           1.80250880784564    2.06583279965804    1.00638749069001
N          -2.04357900676034   -0.76677384627729   -2.03284739790053
H          -2.84083739521808   -0.42745019442482   -2.55675467554784
H          -1.26854169629196   -0.13007327394144   -2.18386940199624
H          -2.25472405852878   -0.69843800270144   -1.03919225994882
