    26
        -50.45701831  Gyration_radius:  2.46323107851 Dipole_moment: 2.263
 S           1.36494474264286    0.68220074666829    1.22000279133311
O           1.86444483617112   -0.62780470241693    1.56922491469293
O           1.61521682437901    1.05947373687155   -0.16177869120999
O          -0.04069630721871    0.85595198039562    1.57013772975621
O           2.17915403688891    1.70534790294258    2.11343282957116
H           2.49992754950034    1.11427583242411    2.78488944077496
O          -1.32966045721218   -2.79921931342002    0.80516828478207
H          -0.40829894927733   -2.79325627171057    0.40659370781037
H          -1.22682232359150   -3.10981550614887    1.70610617544452
O           0.78372277834553   -0.54668908527544   -2.02450790594532
H           1.32709736922698   -0.42844938453567   -2.80513923627874
H           1.14133025509203    0.07471415765146   -1.34027309077602
O          -1.73238479369351    0.41833465300871   -1.68496063411508
H          -0.91629592979279   -0.03996155010253   -1.96591508295784
H          -1.43593221170409    1.34772394008253   -1.44867249061490
O           1.07240298758167   -2.52798821818071   -0.11466287500092
H           0.99844269303662   -2.01671107264565   -0.93583760096604
H           1.46309589183507   -1.91369987599583    0.54146713877072
O          -2.03521143457205   -0.36967345564892    0.64474674366934
H          -1.81375656569292   -1.37555486077544    0.70422758286852
H          -1.25508852737951    0.13251449079622    1.07664441715097
H          -1.99653267104358   -0.07368870894952   -0.40024548048790
N          -0.68640324592063    2.64181158375673   -0.72334861404191
H          -1.12589594695998    2.83940556525223    0.16744478857579
H          -0.52799513298424    3.52262304386243   -1.19606979745149
H           0.22119456233194    2.22813436212598   -0.50867505536144
