    26
        -50.46256836  Gyration_radius:  2.41371912212 Dipole_moment: 3.853
 S           0.03149730712541    1.17889610354974    0.48234747575624
O           0.85246920375858    1.24669316459882   -0.71831385929234
O          -1.24520604192929    0.52005695421922    0.17839782881362
O           0.71941971048361    0.50412343205194    1.57503188214892
O          -0.28075088936958    2.61505473273295    0.96649332245921
H          -0.70333453114915    3.02499975613574    0.16219847634130
O           1.34703695969190   -2.52561503235077   -0.09212754500886
H           2.06887568387878   -1.84101219662439   -0.12369052074485
H           0.67969028440117   -2.20323910658195   -0.74756433181040
O           2.85529697831052   -0.37711173001644   -0.07292401290925
H           2.19905134452900    0.27047046997555   -0.40779152414380
H           2.98697341802119   -0.13085811663648    0.84623783043551
O          -0.35446046838561   -1.19090242670562   -1.62391147986033
H          -0.75712838089139   -0.54534778977868   -1.00317065453058
H           0.24954125140110   -0.66579031966690   -2.15565534389212
O          -2.15865021246368   -1.72569770397693    1.18498194283272
H          -1.97749163937780   -0.80721017344975    0.87741210233945
H          -2.33188848942297   -2.23914680976676    0.39187030084695
O           0.24621449953481   -1.92588659022055    2.03205528170993
H           0.76728388525069   -2.30566596205803    1.12169761420772
H           0.45490512624085   -0.92285745103305    1.99216767888571
H          -0.74959912550778   -1.97739703754764    1.82318529940665
N          -1.19559729468064    3.09075538775426   -1.42546252879701
H          -1.27396550828262    3.88519377227597   -2.04711216369850
H          -2.02942206060769    2.52429410033320   -1.51191408413284
H          -0.40076102056940    2.52320058275326   -1.70443899736650
