    26
        -50.46256840  Gyration_radius:  2.41363093396 Dipole_moment: 3.852
 S           0.24403118985155    1.12608540695861   -0.54473772025319
O          -0.37345927242566    1.04697929442359    0.78526128820651
O           1.52372449141949    0.43143043695411   -0.53918230925061
O          -0.65321164309344    0.60616196026900   -1.56801354359123
O           0.47820641370551    2.62080134593647   -0.86937509710559
H           1.12776222910127    2.89371381621286   -0.16436225256190
O           1.01551088139334   -1.61130806500811   -2.16182735342567
H           1.33445666461231   -0.88518080080939   -1.58467507520487
H           0.49369757393490   -1.16919298112056   -2.83640890814208
O           0.48972297153427   -1.35828053712058    1.44749405414712
H           1.40463485004656   -1.35964542796929    1.15383856471440
H           0.18247596108623   -0.44005033540340    1.28400587536567
O          -0.66867785621083   -2.74044559693485   -0.49440897141016
H          -0.00615883671377   -2.50043976474707   -1.19737297652610
H          -0.27491983807115   -2.38406608862338    0.34032794492047
O          -2.64766357002902   -0.09997650178259    1.42056065153261
H          -1.87438902941372    0.48826313049501    1.25597937618824
H          -2.37360109809550   -0.70684684895225    2.11286371567395
O          -2.42549600477914   -1.06656801517054   -0.93675302445954
H          -1.71523411519939   -1.90830921346742   -0.76087780929823
H          -2.69386543790653   -0.73285598649080   -0.01231630231404
H          -1.80184024947356   -0.33425133389913   -1.29183891610824
N           2.17081900980937    2.65819474693595    1.11007018290590
H           3.01490179204195    3.15788783388734    1.35820630858620
H           2.41715822476173    1.74067264491608    0.75065843577190
H           1.61141470810596    2.52722686050308    1.94288386164314
