    26
        -50.46256838  Gyration_radius:  2.4137115037 Dipole_moment: 3.854
 S           1.22844431204932    0.33820923914055    0.00806392373356
O           1.08616901362687   -0.51589039293437   -1.16260874185984
O           0.16496496116813    1.35073404914701    0.02043981119144
O           1.23115949278656   -0.43040753988735    1.24565977662259
O           2.58544401187756    1.07817567070031   -0.06442500500769
H           2.53100178856774    1.53955079286156   -0.94625567356839
O          -1.71668237451806    1.66371414697471    1.82374797396177
H          -0.96465584062087    1.72736089219731    1.19011443570731
H          -2.51137670682519    1.62590794601810    1.28550075092139
O          -1.87781166108506   -2.00863333705645    0.80113243365379
H          -1.07520152070163   -2.50797612964519    0.48962107358093
H          -2.02608968232178   -1.32731658384697    0.09922287901114
O          -1.75085437367632   -0.11648758510480   -1.04998702390659
H          -1.30650972361396   -0.58514451463814   -1.76150093035501
H          -1.06891705902119    0.49654318263468   -0.69863594686118
O           0.46571847994703   -2.84261540553166   -0.03791539418501
H           1.05856993362304   -2.83136002730394    0.71785859359202
H           0.72590759729858   -2.05665758002778   -0.56392348456831
O          -0.88721815098298   -0.63063506557820    2.59104704591436
H          -1.40594168055471   -1.30290050326255    1.86789531036023
H           0.04557988044836   -0.54985056980336    2.17316180744018
H          -1.29749717449845    0.29190165413080    2.45499788884913
N           1.86534656768865    1.91249363935579   -2.42447973295766
H           1.49153079092128    0.97135308666056   -2.50354397027583
H           2.31782324885623    2.16669779507841   -3.29303186059460
H           1.09109586952885    2.54323312973024   -2.26215592037175
