    26
        -50.46256843  Gyration_radius:  2.41367957698 Dipole_moment: 3.853
 S           0.67502661832237    0.76507304770191    0.76357942730617
O           1.30326501879379   -0.54165165091586    0.89767698708120
O           0.48907639237526    1.08698636895945   -0.65704701471437
O          -0.58880978946404    0.83802622799425    1.48461036944860
O           1.60402146709814    1.84099565181564    1.37483091702518
H           2.45246623208083    1.70319300307392    0.87026946334376
O          -0.65300934885378   -1.94844059474530    2.01916428637163
H          -0.99579095002282   -1.30084215702332    2.64042392695500
H           0.15196112125623   -1.52852519301927    1.64801824366594
O           0.01103868768218   -1.35886642856972   -1.52781461947154
H           0.65707227613962   -1.89572462422145   -1.06112762364752
H           0.23448203114438   -0.43604213231070   -1.27736705349485
O          -1.77910834601093    1.48148634840812   -1.91813852033623
H          -0.88456142649425    1.51009878009865   -1.50574531910235
H          -1.71835333256649    0.84323238462488   -2.63342845402228
O          -2.17631970918503   -1.85806296038888   -0.11705376159240
H          -1.45026644344464   -1.77710670414405   -0.78419897016283
H          -1.70254587874088   -2.06108713453652    0.73435964092135
O          -2.75258247715163    0.51363567444514    0.23964534788683
H          -2.53925183097507    0.96109452545728   -0.65046629385927
H          -2.61194031623574   -0.57959132659397    0.07066521206259
H          -1.94594487164046    0.74193230557737    0.83012620633826
N           3.47892366019418    0.93493228989537   -0.18988090240861
H           3.18241141640080    1.16956761660685   -1.12833186655528
H           3.07098286812922    0.03675001594547    0.05219631785979
H           4.48775695116807    0.85893668586686   -0.17496592689718
