    26
        -50.45701517  Gyration_radius:  2.46343820217 Dipole_moment: 2.262
 S           0.62376618457828   -0.16290807810652   -1.84483594200459
O          -0.34936144028037    0.90533326729318   -1.67860147520032
O           1.98038242545631    0.23073997302083   -1.54020793360825
O           0.21407081631358   -1.36633062958804   -1.13000012745071
O           0.62180452200271   -0.53217792174680   -3.38505352977615
H           1.55805938699563   -0.60048497723353   -3.53416461477510
O           2.21308930355383    1.38774928481013    0.84337237066712
H           2.24546429554399    1.01971607981444   -0.06434715716333
H           1.34227490312883    1.80826135955808    0.92132949214453
O           2.12459886526414   -0.76718092477650    2.27088004601811
H           2.20745620864513    0.11622996427069    1.80122984986004
H           2.89610186565845   -1.27604470290505    2.01664535737263
O          -1.84101976544095   -0.01108874428573    1.62185410615914
H          -1.37465337161082    0.83163539209038    1.45637751537820
H          -2.31403671805309   -0.21501457168174    0.76033786985005
O          -0.45157443541194    2.09832859175341    0.62452129348949
H          -0.79491262105982    2.98476106628026    0.50211861552784
H          -0.42052955563655    1.68555567720383   -0.27613369100749
O          -0.04648492381350   -1.69825195670548    1.35227832072882
H          -0.84096175325357   -0.99047644140673    1.57446472906834
H           0.07685936261335   -1.62585261822310    0.33944680916319
H           0.82460701888865   -1.35319074815425    1.78479543008302
N          -2.63853618512382   -0.56465963901933   -0.83168365516965
H          -2.44169325799557   -1.54057918244419   -1.01749613387114
H          -1.89821749271934   -0.03181348440812   -1.28882510837346
H          -3.51655360826553   -0.33225602541016   -1.27830246713210
