    26
        -50.46489346  Gyration_radius:  2.55407601172 Dipole_moment: 4.641
 S           0.60466761901240   -0.44990529645369    0.33856296287119
O           0.92771587533086   -1.03364519041896    1.71412511996232
O          -0.69718074844504   -0.95051669906790   -0.10340253894647
O           0.56194722822538    1.02492995895281    0.46434509364637
O           1.66080738013189   -0.82731803040422   -0.57897122874888
O          -2.74115953979790   -0.37422742613698    1.45983179227568
H          -3.30757896279850   -1.14762900722283    1.45109102056819
H          -2.02803196487956   -0.55139094014122    0.80752415196802
O           1.21685423359023   -1.98079256006385   -2.90866158491005
H           1.46275689723316   -1.62024952384081   -2.02635558284685
H           1.20785397350750   -2.93353687815341   -2.80784763379847
O           0.24101934746578    2.24373311239808    2.82126460522092
H           1.13288101873112    2.32502420097352    3.16359564042459
H           0.32888560559910    1.89952473382260    1.90913386335356
O          -0.88534300974791   -0.35838622134468   -2.65952181734982
H           0.09251648716146    0.74297782550471   -2.42852720309737
H          -0.28144827926652   -1.04802734889181   -3.00833778301325
H          -1.01731111981711   -0.61779753795179   -1.71820769563414
O          -0.82391887526783   -0.17446569004832    3.30844413933831
H          -1.64730096944967   -0.20686691707746    2.77221506934317
H           0.21170373819259   -0.72993119076676    2.39987472049307
H          -0.56751001195140    0.77164613291241    3.33773435607073
N           0.90298264056510    1.38573978023071   -2.05125037760773
H           0.89060462156532    2.32058995598616   -2.44676103276833
H           1.78512382925022    0.90793491964938   -2.22954084298206
H           0.76846298586187    1.38258586755278   -0.98035721383157
