    26
        -50.46564174  Gyration_radius:  2.41960378678 Dipole_moment: 2.424
 S           0.69995523548861    0.73238696439380    0.81174856976608
O           1.85487537345409    0.25705315808723    0.06922177547171
O          -0.31492858124667    1.27690698732968   -0.10603638039102
O           0.11769931035809   -0.30878603485339    1.65022969201008
O           1.12859940788064    1.88376813558636    1.74966320163777
H           1.54908180488635    2.52539317751980    1.10752733644520
O          -0.19030716478161   -2.71653630377066    0.68136724252157
H          -0.03107840993192   -1.83727128264272    1.10578353935706
H          -0.03840180742112   -3.37240786068709    1.36324407766569
O           1.11409335199978   -1.69970973749889   -1.51042747371337
H           0.79001751816499   -2.34355701443140   -0.85785928622409
H           1.56962862616675   -1.00551204480682   -0.97730809004752
O          -2.47650331021701   -1.70502424635404   -0.43340955242420
H          -1.81009785691118   -2.29576907621563   -0.03658919600555
H          -2.68145685674362   -1.03600398088738    0.26873600013824
O          -2.48399452466735    0.22536263769270    1.37144450873986
H          -1.57717078957166    0.02591635123235    1.67629036692742
H          -2.39416435836895    1.04963142680319    0.88419973957563
O          -0.97105795158521   -0.35022430442928   -1.89479169389489
H          -0.10771733613527   -0.94404390195096   -1.90457140469409
H          -1.69877578795996   -0.93730720057466   -1.37558084379957
H          -0.73096565419686    0.40574969953226   -1.22612020214281
N           2.11090858706475    3.05475502620413   -0.34781552299786
H           1.31232619606661    3.30736395248656   -0.91552599950736
H           2.39046854941184    2.11294836702123   -0.60668769227233
H           2.86896642879365    3.69491711521654   -0.54673272214811
