    26
        -50.46256841  Gyration_radius:  2.41369643438 Dipole_moment: 3.852
 S           0.24638929987528    1.11719649141786    0.56117940382003
O           0.88876255961265    0.12488859098293    1.41139977753167
O           0.60572414351181    0.88043190134917   -0.84281737538105
O          -1.20008456988168    1.12826707820288    0.73461225936464
O           0.75645305299382    2.52568566874749    0.94901126495632
H           1.74378847716486    2.43029789036964    0.85134316246267
O          -1.21234800181304   -1.23780169539540    2.30150952950574
H          -0.36875483412686   -0.79053556495902    2.07698860882267
H          -1.83032572721196   -0.51886599120944    2.45673793045707
O          -1.00946379449428    0.26837553281229   -2.81949819493319
H          -0.35607717043865    0.64819013552539   -2.18711721805967
H          -0.61364312449278   -0.54132384116100   -3.15176148526763
O          -1.77299884206894   -2.24842560316120   -0.05549966408518
H          -0.85374765777802   -2.22939502275675   -0.42079421879736
H          -1.65600415838959   -2.02921135810103    0.90833433812298
O           0.73688450626171   -1.75451506056826   -0.74830544092319
H           1.19368069382640   -1.92895675477545    0.07888465017452
H           0.75751006126922   -0.77676111687729   -0.83668014775474
O          -2.65953811239409   -0.10807999184726   -0.90215085110422
H          -2.17529455108995    0.49354442757202   -0.22772995850288
H          -2.15555596254701    0.04608185319351   -1.77403432468992
H          -2.36315669748936   -1.12628445552874   -0.55658283037291
N           3.17073423897058    1.61485736711937    0.59368848062165
H           2.78497950753292    0.78356826187884    1.03175389973718
H           4.09444104701441    1.79153880331111    0.96690704115511
H           3.24764563618785    1.43723247385530   -0.39937860684845
