    26
        -50.46256840  Gyration_radius:  2.41367498748 Dipole_moment: 3.852
 S          -0.61929284012725    1.11054090526742    0.08508659302501
O           0.18685132077759    0.60621427617493    1.20409116225075
O           0.20966035922917    1.23806880669367   -1.10515784569362
O          -1.77871380184249    0.25959292956642   -0.14747774568789
O          -1.15811013569853    2.50590922017922    0.48121182462498
H          -0.32153494280059    3.03883258462786    0.57878563973765
O          -0.03029938324954   -2.60993653206496   -1.17895679610848
H          -0.33911736319927   -1.99339721617681   -1.89670212427799
H           0.76293998335003   -2.15825964628100   -0.79733680203028
O          -0.85177650803420   -0.62016120123873   -2.68141478562298
H          -1.78534998294934   -0.48994111878948   -2.49611946684929
H          -0.40479965531174    0.11678871354594   -2.21321702818383
O           1.79299771725444   -0.96611103511572   -0.18060337412344
H           2.01133047203183   -0.44127818568020   -0.95532868243480
H           1.26479546644206   -0.36023728839341    0.38342622114640
O          -0.13495203486184   -1.64718953467144    2.51151049066095
H          -0.03473202190499   -0.71998925880846    2.19317726778781
H           0.73154618829978   -2.05153053374903    2.42000408356595
O          -1.71420493625345   -2.15414352447415    0.56477015045452
H          -1.17424062803668   -2.09303068115723    1.42652373700899
H          -1.88377464005589   -1.17555324835468    0.31004492741489
H          -0.99288427771917   -2.47535677123736   -0.22294092712601
N           1.31477710616203    3.32410311230823    0.48378865375493
H           1.38114956599285    2.72368825433887   -0.33278907486176
H           1.75452442241771    2.84585012203018    1.25938012034784
H           1.81321056008448    4.18652684147757    0.30624379122672
