    26
        -50.46564183  Gyration_radius:  2.41978451475 Dipole_moment: 2.428
 S           0.94841266331867    0.37114160901624    0.80443772983083
O           0.93487870214631    0.68193466769821   -0.63496784587514
O          -0.08453374143244    1.12250228607805    1.49707549326049
O           0.81772217020783   -1.06599704096919    1.01333318307851
O           2.33622469760550    0.78415428869885    1.34529003708646
H           2.32495542486883    1.77446766127732    1.20378788423180
O          -1.54502801116093   -2.17482939300799    0.87318898847004
H          -0.64475043397895   -1.78469936597756    0.99884901677255
H          -1.61760998322044   -2.88688316929161    1.51029849545838
O          -1.11983821113486   -2.15039417809237   -1.83097298105565
H          -0.13337685649266   -2.24555278984933   -1.81077546218912
H          -1.41729710400257   -2.38193060881059   -0.93185296985141
O           1.48288117020790   -1.98328056102022   -1.40482352896434
H           1.37548263358798   -1.78950286608060   -0.45303093406164
H           1.76526927245099   -1.14683251156493   -1.78630862718640
O          -2.43207006261383    0.40665856238938    0.57553757662660
H          -1.65011643966281    0.78047427950091    1.04719487094241
H          -2.43273908418896   -0.53870143106734    0.80287720607808
O          -1.31751821113788    0.33444947962639   -1.67598942093746
H          -1.29228384514652   -0.71821948046453   -1.86333960247664
H          -1.91428828655676    0.43837905942513   -0.82092146409369
H          -0.36495551335911    0.55325884469868   -1.32813273190669
N           1.68025359052311    3.23416501959074    0.79496085890217
H           1.89597968343992    4.15276569721481    1.16057191215566
H           0.76459114022139    2.94691319737164    1.12847174795967
H           1.63975463551316    3.28555876361257   -0.21475942226438
