    26
        -50.46564164  Gyration_radius:  2.41956254043 Dipole_moment: 2.421
 S           0.64375874049252   -0.00329261846757    1.12758688720540
O           0.30876477141783    1.22355277503057    0.38498514030083
O          -0.55577528359478   -0.60433920193412    1.68514257243620
O           1.37681389472517   -0.92873323651491    0.27185980422638
O           1.59601232772506    0.40584491507050    2.27435755631099
H           1.00880442010835    0.99795924312596    2.82687252570713
O           2.19494221984653    0.72303186986838   -1.66058243161635
H           1.90902725311735    1.54672802243340   -1.25469652790731
H           2.09413667233266    0.05793381280508   -0.95170394348219
O           0.12446381215821   -0.18390686275241   -3.02951252516672
H           0.10577684093436   -1.10337081004305   -2.70582586666002
H           0.98505701267494    0.18763577104189   -2.70705336314024
O          -2.15583503543397   -1.30040708996934   -0.27135799018974
H          -1.68292177445309   -1.12525988936190    0.57678159099793
H          -1.59455620673965   -1.93869615459116   -0.74349793792294
O           0.06842084453171   -2.41032239119340   -1.43827945867600
H           0.59288189130179   -1.91593836147771   -0.76075505933776
H           0.48031119134772   -3.27194613881012   -1.51666525891928
O          -1.43660835350884    0.84175982583370   -1.37163754956458
H          -1.89491896424070   -0.01005311247403   -0.96863698738273
H          -0.74872964804595    1.10812470529379   -0.64217989418458
H          -0.83575803464868    0.47238790667489   -2.17560885726193
N          -0.39002615576970    1.74608975851984    3.27186051460374
H          -0.70058507228810    2.02829148203697    4.19269541150839
H          -0.94022283618552    0.95050895389224    2.96135510112091
H          -0.55323453780493    2.50641683596219    2.62449656699917
