    26
        -50.45399898  Gyration_radius:  2.57187862306 Dipole_moment: 2.551
 S          -0.52443606793316    0.77674232282435    0.43238320296892
O          -0.23048276279414    0.03419959074370    1.65041119638184
O           0.48045700046822    0.51207559729094   -0.60327826440825
O          -1.87193597407635    0.46974861511414   -0.05970393727899
O          -0.50149957778454    2.28214267747033    0.73254963228652
H           0.51301950844061    2.48960279976031    0.82947264600475
O          -1.79314700699798   -3.10103342670497   -0.76370244143106
H          -2.39006611902978   -3.23984429256371   -0.02570842823306
H          -0.91776862810672   -2.83904253591147   -0.36425842624708
O           0.38884879512519   -2.13743010429671    0.30262855878185
H           0.93437149016638   -1.67966788936462   -0.34412336235755
H           0.14323115683135   -1.43616547446295    0.94319286962354
O          -0.08276816318724   -0.24178801820897   -2.99621739445903
H           0.21678286964539    0.05782613389766   -2.09216063556628
H          -0.08079170616258    0.53926194558814   -3.55212937331444
O           1.93319913507032    0.68175032705185    3.07368327659061
H           1.14837405497762    0.36877367884856    2.57743233773393
H           1.65696866766322    0.72995276788535    3.99011945669533
O          -2.30616284837072   -0.96148335911316   -2.00863563071651
H          -2.16258712721136   -1.89685877072860   -1.58486780582324
H          -2.19583508638768   -0.29746690975313   -1.17083548116129
H          -1.46564534236616   -0.75668301745628   -2.55774173503281
N           2.02772138955444    2.48046489187402    0.89071448780420
H           2.24469987518838    1.98413166841244    1.75574872568735
H           2.59329220168181    3.31619462236116    0.82895549911717
H           2.24216025558931    1.86459617943930    0.11607100634692
