    26
        -50.45399900  Gyration_radius:  2.57202658667 Dipole_moment: 2.553
 S          -0.60862072410410    0.78458859108710    0.27999098956826
O           0.80544880757988    0.39729359083240    0.22775140562267
O          -1.29505587498529    0.43176120756049   -0.95520503075184
O          -1.27074423972561    0.18112913013294    1.44174708980948
O          -0.66989626335151    2.30506978513719    0.48323362377009
H           0.01403147060996    2.66531085700013   -0.21259146882327
O          -0.10837706666871   -1.91255150576538   -1.06838804641703
H          -0.66517910275973   -1.10806648552707   -1.14029738702070
H           0.76872849734534   -1.57046789644296   -0.87059119288328
O           1.97626500961499   -1.02481381434172    2.02189120463829
H           2.42694666350572   -0.42362368423243    2.61729670628188
H           1.59789736067471   -0.46165595964482    1.28948516881856
O          -0.65670788552672    1.71531061524011   -3.20728086313763
H          -0.90867772308529    1.18009244364527   -2.42611402921343
H          -1.48169665557121    1.96497744160481   -3.62624915701333
O          -1.03725532676400   -3.40478129206395    0.86486714683321
H          -0.65584513971027   -2.93273535675975    0.07355150007609
H          -1.98671560869038   -3.42439721237425    0.72940013016239
O          -0.36918367364413   -1.75332571550822    2.65854443423935
H           0.63224129836320   -1.58800241335305    2.51837266785995
H          -0.80756429967731   -0.88521868163055    2.20096826819577
H          -0.63679272337768   -2.51769663433337    2.01110741518370
N           1.06505240069778    2.87622745520682   -1.28448888991405
H           1.58809221893145    3.73477111554292   -1.39151237160869
H           0.58531392771165    2.65707412580915   -2.15833123149117
H           1.69829467262878    2.11373027317179   -1.07715806277370
