    26
        -50.45399896  Gyration_radius:  2.57191961867 Dipole_moment: 2.552
 S           0.15930973752159    0.95214682142362    0.36415593647791
O           0.60092115180657    0.21449304425905    1.53981916752698
O           0.32282531619712    0.15143828993770   -0.85429546066519
O          -1.23110017119976    1.39605423383134    0.51209962283340
O           1.00865956129506    2.22135192592454    0.20727749323017
H           1.91858628053103    1.85677454370149   -0.14028128022617
O           3.19657078598888   -0.34176298147539    1.82227778212046
H           3.43083627540171   -0.11658119714295    2.72388165218250
H           2.22830572713861   -0.20520920879595    1.75911788459308
O          -0.55117246167299   -2.00015515300414    0.71276919721336
H          -0.11918853402186   -1.25291609865036    1.17909236850216
H          -0.22414743425794   -1.93042642267759   -0.18923208010484
O          -1.55344911569728   -0.27401311180756   -2.56019574421514
H          -1.44781478696202    0.36254954938024   -3.26921126371168
H          -0.77191959578019   -0.14725856994604   -1.95192583897797
O          -3.14166511314716   -1.68451102935238    0.84156493609913
H          -3.31856857730458   -1.45340687350565    1.75563134215009
H          -2.17291617112654   -1.91733351290711    0.79909004516043
O          -3.11745510076140    0.34769533973425   -0.66178260524502
H          -2.34200888554527    0.88040070546004   -0.14236860517017
H          -2.63805870851242    0.04932603317443   -1.51683848926364
H          -3.24481079144566   -0.50221344711364   -0.08157790751022
N           3.09160213249668    1.04000538295767   -0.64527376652350
H           2.61330100407218    0.37577702934481   -1.24141693647427
H           3.42610626177752    0.53853556539524    0.17835692049114
H           3.87725122322138    1.43923913188000   -1.14073440047757
