    26
        -50.45650388  Gyration_radius:  2.43668635519 Dipole_moment: 2.862
 S          -0.60828164699397    0.07634769412251    0.56735809898358
O           0.04041805689230   -0.91278864826110    1.42375324847521
O           0.33472369637263    0.59572040981420   -0.42991274276400
O          -1.78934608763683   -0.49149747606389   -0.09818094643906
O          -1.11916929516922    1.23950145785101    1.40870640206093
H          -0.30652127881604    1.71621091513554    1.91409337658101
O          -1.64408590227412    1.52988786339535   -2.06320473351213
H          -0.94468058522457    1.45599568579804   -1.39517038711951
H          -2.41534270908057    1.13205172442810   -1.65087055016528
O           0.53707904363480   -2.99009562382872   -0.04651703677922
H           0.41357958633421   -2.21320931753387    0.56173248151893
H           0.33827433685867   -3.77105912295070    0.47366780830763
O           0.17915494806897   -0.31346628793472   -2.93460482322884
H          -0.50262002847366    0.34856734600108   -3.14923615920506
H           0.53713385819975    0.01429439524159   -2.08264695249455
O           2.39460485579987    0.38388438344730    1.32072613922779
H           2.05042988628315    0.61498309195666    0.44637855013050
H           1.77518585180841   -0.30252019568752    1.61521503476932
O          -1.09785960697302   -2.14093832168054   -1.79609363607543
H          -0.41245045423790   -2.63236723747810   -1.21776885954841
H          -1.52439863341867   -1.46949001158305   -1.08837152177695
H          -0.55165130668741   -1.47762919352700   -2.41268503213836
N           0.85753400578361    2.32090793272382    2.56074304573512
H           1.63116839190463    1.72720424750848    2.23269469594145
H           0.80855803346840    2.28377911398091    3.56962035552636
H           1.01856297342369    3.27572517491261    2.27057413395011
