    26
        -50.46293009  Gyration_radius:  2.50919487134 Dipole_moment: 3.641
 S           0.90692347554930    1.23565048666031    1.36275687886998
O           1.00541351778602    0.13454315582904    2.29248186667278
O           1.86337545763447    1.12409886796814    0.25912499172093
O          -0.43161350280745    1.51455566537504    0.88596394218290
O           1.34549583462181    2.53360694896815    2.17138850751341
H           2.03885491038512    2.20740030193212    2.73568178119989
O           0.40993951291629   -2.26106963880646    1.45723888697007
H           0.58670493872819   -1.35298776642651    1.80686836353427
H           0.76653063369590   -2.86681484015501    2.10919767924323
O           1.27663252712188   -1.22718810343012   -0.97397433761639
H           1.64445860824667   -0.43307235236954   -0.54977468128590
H           0.97984358759294   -1.78897494062033   -0.24322871448271
O          -0.58152061734280   -0.07874044179065   -2.51112922415747
H           0.10381199109179   -0.65624051660820   -2.10385931470095
H          -0.08435544818418    1.22670639188267   -2.11169819062992
O          -2.14915807576225   -2.48580697007120    0.52870320380100
H          -1.26516455297154   -2.41938712947275    0.93580887353109
H          -2.07562673162362   -3.13074723755888   -0.17692808039891
O          -2.29055977822514    0.02200934667786   -0.52232671277064
H          -2.39767807521687   -0.85649748153563   -0.10870419930568
H          -1.77726649537211    0.54769951418729    0.11010453236824
H          -1.35410048821492   -0.12439982265743   -1.88708160676747
N           0.28429147396802    2.11783530193494   -1.54890952392936
H           1.17114677961847    1.83349321841163   -1.07165987732842
H          -0.34926466026339    2.22715969601400   -0.73643079480417
H           0.37288515702833    2.95716832564155   -2.10961426938521
