    26
        -50.46292985  Gyration_radius:  2.5092971647 Dipole_moment: 3.634
 S           0.09020809981537    2.04811477338424    0.05931208128377
O           0.25729312777513    1.70520952187151   -1.35500744325104
O          -1.29805089120796    2.09476943631486    0.45615588032683
O           0.94188174048927    1.24342898794963    0.90989186951014
O           0.63713984557724    3.53532281721677    0.20004864866088
H          -0.10869970969222    4.06193290191956   -0.06827048234463
O          -1.67681420509900   -2.08279870815376    1.98513763235637
H          -1.88757989528523   -2.88651678247235    1.50676541350877
H          -2.07758595574373   -1.34911902131233    1.48247246365622
O           1.32456799979200   -2.00673749203124   -0.92967508123384
H           2.06096385414293   -0.76220554851601   -1.06826747200913
H           0.45110156877841   -1.73105028607741   -1.29044147379324
O          -0.90979512492718   -0.73324689802780   -1.65038113794670
H          -1.64052468117266   -0.70422736099479   -1.01563053866554
H          -0.56937225857863    0.17700472550698   -1.68679922031486
O          -2.68902925098244   -0.10774831049819    0.39231815204502
H          -2.16340827964722    0.72584872338520    0.47588505500422
H          -3.60928131903853    0.15693961198454    0.43902623837128
O           0.94084835880818   -1.43649316770168    1.60291447074125
H           0.04806152508692   -1.70756977140949    1.89207918734447
H           1.20910089747698   -1.98490427317063    0.05751898472183
H           0.91625443203665   -0.46869316267214    1.55175912426094
N           2.41463312542575    0.29607369044831   -1.02448719257416
H           2.29900481001870    0.59731703616196   -0.04025245274468
H           1.68773729635215    0.88188926639436   -1.49806021468943
H           3.35134489978604    0.43745929051511   -1.38401246222291
