    26
        -50.46292991  Gyration_radius:  2.50931529378 Dipole_moment: 3.635
 S           1.59935500917436    1.28345810589021   -0.03947125908505
O           1.94589019337225    0.28133335529571    0.97116576899045
O           1.91291619298360    0.84699114869601   -1.38037450007213
O           0.25225816748718    1.78271055868251    0.14095464071779
O           2.55194950555181    2.52357935238270    0.25246078965810
H           3.35809534663078    2.28094349283533   -0.19124175250621
O           0.50587385670099   -1.93167856384981    0.31930562826943
H           0.46977974632209   -1.89185244707306   -0.64755273290123
H           1.14591809828358   -1.24647787281263    0.57736809573757
O           0.62822529242628   -1.19769484691491   -2.35960002540046
H           1.12937879697935   -1.48558474817957   -3.12448740127765
H           1.08608603490093   -0.38703745785180   -2.02593933806655
O          -2.07765005275160   -0.83758311739511   -2.46394237218446
H          -1.10702512568822   -0.92821267855570   -2.49932285531330
H          -2.42687658449207   -1.71668369467891   -2.30758264190489
O          -1.62273623517932   -1.07798273897144    1.68843824699115
H          -0.79599539775749   -0.05740680609076    2.30937307521042
H          -0.93241097799774   -1.59132088229040    1.20990266923741
O          -2.25075619794732    0.64628305889548   -0.18737819774143
H          -2.04119871336955   -0.50564352820861    0.99147560029043
H          -1.43444772455392    1.16869956519282   -0.21077181220512
H          -2.30897543929495    0.20972721404508   -1.05933524795772
N          -0.07903268213705    0.77147157530026    2.52311754550360
H          -0.26894791686436    1.50518886106491    1.81688213321897
H           0.86750571705373    0.44393504099129    2.21909399114142
H          -0.10717890984012    1.11083805360565    3.47746192162795
