    26
        -50.45094443  Gyration_radius:  2.57271266849 Dipole_moment: 1.978
 S          -0.37920920726808    1.22971168470877    0.52283246694747
O          -0.55252986762352    0.76305698910432    1.88753819663519
O           0.91419726520697    0.80698846080977   -0.02254069802706
O          -1.46812115962943    0.79913236063777   -0.35399344752712
O          -0.41362776472404    2.78324562412845    0.50599328639214
H           0.30231270870236    3.01992222837702    1.15139048892565
O           1.07532384168791   -1.27288832533426    1.61816280436365
H           0.40826215203017   -0.68542581337467    2.02742166506055
H           1.41539152048366   -0.69692498683341    0.91287604301102
O           0.96593138859623    0.09815107737400   -2.54009479413349
H           0.89345140710408    0.44087099171493   -1.61668853561374
H           1.80713581158359   -0.35985663738430   -2.58421065533764
O          -1.20286016419999   -1.19855332962445   -3.23940794663062
H          -1.74973346308381   -0.53846675579091   -3.67070745451674
H          -0.35071485382640   -0.73500500627633   -3.01887119588466
O          -0.41824213017068   -2.98853628914806    0.36433680583970
H           0.21784373712041   -2.37981127748661    0.84382550124624
H          -0.81031054181484   -3.54901135989414    1.03620895346463
O          -2.07456019265154   -1.52762628606529   -0.88972889916597
H          -1.41875803484558   -2.14611472550971   -0.38978983427809
H          -1.87346860187707   -0.53455650662787   -0.57663711709662
H          -1.77167208620490   -1.50242713237432   -1.88183483742258
N           1.48058934234475    2.69946038258087    2.31558394500020
H           1.81755577180874    3.24448365316681    3.09887001975986
H           2.27531728327139    2.29672269129051    1.83570314511911
H           0.91049585799542    1.93345830803411    2.66376207419736
