    26
        -50.46293001  Gyration_radius:  2.50918498813 Dipole_moment: 3.640
 S          -1.49459735679573    1.39834582663557    0.13065041597571
O          -0.58084655732509    2.41507416578418   -0.33624521720348
O          -1.91887944685512    0.49240224429769   -0.93920090146144
O          -1.05353728848513    0.67301510492530    1.30371374502958
O          -2.81308527651072    2.16650531525870    0.58061551173902
H          -2.87733806204601    2.86914619460141   -0.05794041108962
O           3.25010241955137    0.33869265177822    0.63548612528982
H           3.74730497129882   -0.29025816530240    0.10971646367048
H           2.74666459601831    0.88804349782189    0.00593649488075
O           1.75864096691176    1.68074256140239   -1.21831211282536
H           0.89795511286277    1.98310691811599   -0.83635543551706
H           2.10825272437242    2.43059238873330   -1.70266505983623
O           0.30947625986017   -2.55963618238652   -0.03355422565088
H           0.45957909209215   -1.99351106284171   -0.82481245378745
H          -1.05565399752783   -2.18439418437775    0.29208862595495
O           0.36920271987431   -0.63357680311687   -1.88297091147094
H           1.02025883566153    0.07591734983021   -1.78049373428686
H          -0.49081517943978   -0.21583853758460   -1.70506466995397
O           1.15072965931452   -0.91672805927116    1.83166086308409
H           0.45035071759970   -0.24771413192558    1.79013539401933
H           0.76149377182664   -2.07942574773270    0.71044580542552
H           1.96796439625822   -0.45982250038584    1.55296605348758
N          -1.99615218030009   -1.63835486510811    0.54547239538117
H          -1.74435074307971   -0.96172749402746    1.28853952714388
H          -2.77372488194171   -2.23959647023239    0.79159022722547
H          -2.19899526321688   -0.99099998494081   -0.25140253521318
