    26
        -50.46489336  Gyration_radius:  2.55409024882 Dipole_moment: 4.643
 S          -0.57163657337925   -0.52678689538082   -0.28009124790137
O           0.73343001425036   -0.88663316366759    0.27482293446636
O          -0.59805757545529   -0.67627034627562   -1.72122561759348
O          -1.64246474044574   -1.43790894930435    0.32019111082386
O          -0.90448705252052    0.87079608006515    0.07852294860942
O           0.96164353825234   -0.69463850595567    2.89471158495112
H           1.50621199777366   -1.43458115266375    3.16838031695409
H           0.95181888382323   -0.71188730215260    1.91235252843959
O           1.54284883022224   -1.20828982193144   -3.16613798970174
H           1.65552003454239   -2.15578396061731   -3.25176287110022
H           0.69230663555160   -1.08172123816859   -2.68701893971171
O          -2.54363804293497    1.46868684153334    2.10294569045746
H          -1.90754168353412    1.36102672000765    1.36672004791812
H          -3.41659915881131    1.45260879842182    1.70696814387751
O           2.52837308060064    0.32451903373906   -1.21872796140397
H           2.47936816102726   -0.26372689616481   -2.00204301201242
H           1.48300577452748    1.32235330477447   -1.58403928814434
H           2.01490093055594   -0.15939265085073   -0.53097096151846
O          -1.69169904183519   -0.98308549531090    2.79794934373601
H          -1.67737859696963   -1.30674536706706    1.34812743963423
H          -0.74094950246152   -0.87219102678725    3.02229936386832
H          -2.06612522372643   -0.07677627899786    2.78967477326805
N           0.53793502426236    1.84211082909793   -1.80595973904350
H           0.64702247104644    2.84606324518469   -1.90941105547138
H          -0.11169276474269    1.57430128160629   -0.98671787769078
H           0.13788460038793    1.41395289687129   -2.63955968570770
