    26
        -50.45726681  Gyration_radius:  2.49137230169 Dipole_moment: 1.646
 S           0.21869635491256   -0.08474059019516   -1.28710518307860
O          -0.37662439095489    1.22210699417235   -1.49821178644928
O           1.34800833533985   -0.02989106659999   -0.36686796625390
O          -0.77133540036202   -1.06153492461688   -0.82525882095064
O           0.73554012760296   -0.62795580151798   -2.65149080656982
H           1.38996361063839    0.06850183211629   -2.90164458988352
O          -0.11190736361578   -2.95093288568699    0.81910745259357
H          -0.67956788548948   -3.68794490579688    0.58587696809234
H          -0.23847862813229   -2.27336195232823    0.10390942725615
O           1.14760958801254    0.24444016930195    2.18414746467502
H           1.98537657911710   -0.09552623282804    2.50444670844306
H           1.20556165256223    0.20544168821388    1.18868221223149
O          -2.44710135121607   -0.24600657272533    1.02100372614043
H          -2.27780102697965    0.73073501117227    0.99623903932185
H          -1.98614326894825   -0.58120280204459    0.21503669763151
O          -1.68203120093549    2.21665100475752    0.54638129932860
H          -2.30855434770341    2.83914692532584    0.17313658412574
H          -1.13052918699067    1.90418792507174   -0.21086605251281
O          -0.84032383855814   -1.26603759253820    2.59624630768380
H          -0.55023585854546   -2.04918371086992    2.01037093994752
H          -0.04493096326377   -0.60993402170248    2.54025944759511
H          -1.62926710155295   -0.78767777612398    1.99565550793710
N           2.21896097785021    1.51888197489534   -2.59734769643855
H           2.90480887257879    2.12905662772469   -3.02476942168483
H           2.55467199767666    1.23025242313268   -1.68480054890661
H           1.36563371719497    2.04252827013214   -2.43213693040163
