    26
        -50.45094744  Gyration_radius:  2.5698211838 Dipole_moment: 2.010
 S           0.20594515344007    1.35561226003421    0.25332657360882
O           0.03425645169574    1.25616643625616    1.69211148329743
O           1.15439115697836    0.35180352353087   -0.23901663677137
O          -1.06389403819665    1.25330457119674   -0.46587451619858
O           0.77750017581857    2.75736411884815   -0.09789612780568
H           1.60539872416594    2.79264302549093    0.44816401707242
O           0.69641996948750   -1.27788332144736    1.80208975376712
H           1.14112933081354   -1.02023535759740    0.97658533896186
H           0.36460799249330   -0.40998441163382    2.10816219423779
O           0.58226237928286   -0.81715585534072   -2.51026933764948
H           1.13880133046916   -1.59632229503825   -2.45857024775061
H           0.77702291879608   -0.29182175263650   -1.69721907691709
O          -1.99960217413797   -1.13835447215359   -2.84347694011175
H          -1.01143661520510   -1.06325481462315   -2.76005234401943
H          -2.27061843688884   -0.38181465959953   -3.36799724936177
O          -1.48535715267251   -2.43741894884034    1.00134027324372
H          -0.61039874410516   -2.06171286614369    1.31495111259081
H          -1.97207663761082   -2.67797215969075    1.79152461326481
O          -2.60538204270259   -0.66760772535450   -0.43602592307555
H          -2.17787960848990   -1.40271741344574    0.14620666782880
H          -1.98951135227038    0.19244034551819   -0.36022384882604
H          -2.45806019711176   -0.94259700253890   -1.42602544866232
N           2.70382445437391    2.22669662605482    1.59760901653862
H           1.93061772631527    1.84389598156079    2.13459663550102
H           3.33752673454910    2.70619201804005    2.22419435941950
H           3.19451252060766    1.45073414950718    1.17178564777328
