    26
        -50.45726679  Gyration_radius:  2.49142643013 Dipole_moment: 1.646
 S          -0.51252968533028   -0.78441664923518    0.91289828742532
O           0.13543135647476   -0.02312394280732    1.96523832824180
O          -1.39336014555410    0.04506985035684    0.09970901619472
O           0.46348344700664   -1.47699730961869    0.06713051868530
O          -1.37306830035070   -1.90763321871120    1.56211842666939
H          -2.00123116423078   -1.37755204816596    2.11016540634562
O           0.02633917568019   -1.82472394042249   -2.46204852238854
H           0.45748035958842   -2.65506391514338   -2.67301747709355
H           0.04785685126912   -1.75132634579473   -1.47169389624913
O          -0.59361713459933    1.73274558573872   -1.67088343572678
H          -0.87992143463970    1.12256989036119   -0.93496780624077
H          -1.36391630005236    1.83791997228465   -2.23267712243289
O           1.95778314101812    1.68550566851448    1.16941744515523
H           2.53693814565157    1.81309353052099    1.92281481177901
H           1.22208809361577    1.11039470007493    1.49057529372554
O           2.58247147803463   -0.10325192966628   -0.64279175881476
H           2.50213620186467    0.67517793659526   -0.03369767679534
H           1.92169177452965   -0.74457382627576   -0.28712435599591
O           1.28940887636378    0.38453548375740   -2.69056413893739
H           1.96157221638851    0.23057370071047   -1.83223924916948
H           0.80379620577610   -0.50955531483375   -2.76367284721692
H           0.56537071088733    1.02877412734892   -2.33416549775430
N          -2.60433487526240    0.10352236210216    2.68073871588549
H          -3.31212075759017    0.46741887330964    3.30685552227133
H          -2.74736180920143    0.49390820384483    1.75555288446962
H          -1.69238640735830    0.42700854518873    2.98632909793547
