    26
        -50.45726682  Gyration_radius:  2.49142799765 Dipole_moment: 1.646
 S          -0.27583923538299   -0.54348328971484    1.15755411639153
O           0.92893821196892   -1.35034915575144    1.09203878715047
O           0.01564650973773    0.88295233346507    1.08368756567315
O          -1.23835459128689   -0.92391588338688    0.12001002576633
O          -0.99216803585574   -0.81889989427567    2.51207318369890
H          -0.29707922687061   -0.54406714176357    3.15796192515246
O          -2.77749247218636    0.84394476672780   -0.98202928316136
H          -2.23737341062673    0.22716966242246   -0.42120495359036
H          -3.58452863617282    0.36979847811153   -1.19108262180979
O          -0.26690038814558   -1.35225485122489   -2.27886661813149
H           0.70297821544194   -1.38499188575351   -2.07488966383966
H          -0.69179809101512   -1.38670873919585   -1.38853698621845
O           2.13755842046319   -1.39688645447927   -1.23413115573378
H           2.63977486655724   -2.21356458140620   -1.24645652834266
H           1.75019324719656   -1.33359141856175   -0.32800550366069
O           0.68638838177976    2.13087292309309   -1.06469089325315
H           0.48990545372864    1.61681143426551   -0.23220103070445
H           0.47021218926921    3.04298517312493   -0.86131779365818
O          -0.88739769829331    1.00280069615622   -2.69383859560254
H          -1.73053587408100    1.02688358576367   -2.12010134254550
H          -0.18909368910311    1.50801324662253   -2.12516214400148
H          -0.57653659363924   -0.05151355010293   -2.63123581922412
N           1.24334405495063    0.06871631063228    3.52541374942234
H           1.13392319134026    0.90518480866115    2.96229327542404
H           1.71939807176075   -0.60768821219456    2.93760218795823
H           1.82683711848244    0.28178163874881    4.32511610688879
