    26
        -50.45726677  Gyration_radius:  2.4914857603 Dipole_moment: 1.646
 S           0.30266185598154    0.62291939098715   -1.10994230323336
O           1.71791883515105    0.40114468717395   -0.87619380108899
O          -0.44547783417305   -0.62693152437212   -1.16727805179264
O          -0.27668630751343    1.52097497503971   -0.10715066172374
O           0.12669688822664    1.35218926702211   -2.47408680585763
H           0.53223188617972    0.70023109221932   -3.09560637113910
O           2.35068578163327   -0.45488723247240    1.51979365543044
H           2.13520403393312   -0.21106017207026    0.58745785452437
H           3.26356772122248   -0.19374513076590    1.65323675937703
O          -2.72244250548375    1.22518329354224    0.69309269361315
H          -3.02263161943375    2.11330092204489    0.89557942428516
H          -1.84544016048194    1.33164896560267    0.23903994165063
O           0.42867018887052    1.10471708357337    2.38482776420498
H           0.24876174115841    1.44501968196301    1.47578229557657
H           1.18722132590244    0.47973882014650    2.25317847367478
O          -1.05094493922663   -2.06647339725413    0.87830542043145
H          -0.74944304604876   -1.52910402223529    0.09339494164719
H          -1.79437553394550   -2.58525045487885    0.56497122787860
O          -1.65111352864938   -0.22314812850617    2.50491299661793
H          -1.40676084761983   -1.04925007083503    1.93575712476721
H          -0.71071453984384    0.34511457749884    2.57564252305851
H          -2.21575481068436    0.34695188194150    1.87494930399398
N           1.29827242510766   -0.78034871907557   -3.41849172757780
H           1.68112057679305   -1.30652684053028   -4.19433769246142
H           0.59048927881784   -1.33991386689986   -2.95516323068450
H           2.02828313417337   -0.62249509884671   -2.73167176518570
