    26
        -50.46407699  Gyration_radius:  2.3641338029 Dipole_moment: 3.020
 S          -0.52611711876068    1.04790064943272    0.76545343402101
O          -0.22990058374215   -0.29018835300188    1.30093394052281
O           0.28698357364218    1.30290437181418   -0.42515503096189
O          -1.94103622851407    1.17766016354062    0.47959735449186
O          -0.13270085908387    2.07517252847321    1.84925418170286
H           0.85993568343968    1.93680269533987    1.91114541234002
O           1.91737565005348   -1.70542049328608    0.86685712069857
H           1.77066695244259   -2.58075398567565    1.22891550072600
H           1.13223937327152   -1.16814842101836    1.12702676519517
O           1.04662152991681   -0.90931511156622   -1.56371468806893
H           1.48183551001372   -1.37753080427431   -0.82212441737960
H           0.85491616155767   -0.00886934049737   -1.19878874676646
O          -1.92527481760384    1.03817762728749   -2.11993308403743
H          -1.09092595896673    1.49165513918344   -2.28116397844526
H          -2.08724007428701    1.18269235085595   -1.15396488892428
O          -2.24317840436863   -1.62636227978340    0.37351287312506
H          -2.94189036654593   -0.96898134451574    0.45728981671870
H          -1.47532504513397   -1.21402706493432    0.84470576169109
O          -1.35489022803124   -1.42309298546428   -1.98774705032525
H          -1.65994492037995   -0.44809292254017   -2.18044478883805
H          -0.30077261752171   -1.32934356101111   -1.85428043658038
H          -1.75597476542351   -1.63250201525400   -1.05342954522141
N           2.37315645240823    1.44856660620678    1.50535120856602
H           3.20127572087691    1.99662841821261    1.70043598892803
H           2.16609138939834    1.50609347434538    0.51320224197271
H           2.57407398135106    0.47837464812923    1.71706504485878
