    26
        -50.46407702  Gyration_radius:  2.36412055583 Dipole_moment: 3.022
 S          -0.06640381386913    0.97609347210135    1.00172491911180
O           0.69747569471200   -0.27532747084927    1.12568870808078
O          -0.24740113195401    1.31522629094722   -0.41105158195892
O          -1.33814694051940    0.86370290785424    1.68770120000899
O           0.76886015511775    2.09317198808219    1.66430373652994
H           1.57961777954230    2.12040591049127    1.07244649320585
O           2.25654570214905   -1.33769600111739   -0.67511674714350
H           1.74809936235785   -0.92593274476363    0.06290716389462
H           2.50671020336112   -2.21094603733204   -0.36916455983781
O          -0.06860848946333   -0.78509649659821   -1.93556559695881
H           0.80254353549657   -1.14836963036275   -1.67535986455355
H          -0.11517545842214    0.08519852189669   -1.46528431441824
O          -2.96072635852281    0.63205788381353   -0.33493712021508
H          -2.48968078251045    0.78413963908738    0.52252048211196
H          -2.49933540181862    1.20856444549879   -0.95342108851540
O          -1.21794177748352   -1.95390950129493    1.58648454383214
H          -1.79084322968790   -1.41573980423184    2.14281716570145
H          -0.39812719075213   -1.40531517306397    1.49391450203495
O          -2.07927441490625   -1.69729597229608   -0.77957789913531
H          -2.57765846326744   -0.79261991552227   -0.66146661843027
H          -1.21058644791368   -1.42893121379924   -1.33738678377861
H          -1.75685894402861   -1.93404582684177    0.17833843921208
N           2.53838620188144    1.87005331865213   -0.23538426945065
H           1.74142816346801    1.85655539666891   -0.86406393808722
H           2.96927082469981    0.95385137328567   -0.27288781240298
H           3.20783124233940    2.55220464970021   -0.56817915884419
