    26
        -50.46407700  Gyration_radius:  2.3641105936 Dipole_moment: 3.023
 S           0.04497490602080    0.41052561988386   -1.33782942601927
O          -0.20294110334274    1.36187629607094   -0.25287584535893
O           0.74860167275500   -0.77305924940787   -0.81928238325555
O          -1.18728719868598    0.02078494611719   -1.99372490067599
O           0.97580368783274    1.08470036555603   -2.36917301396381
H           1.74978219562715    1.36431752291201   -1.79364466825767
O           2.13945778330349   -0.92188080395933    1.38198567398492
H           1.69813164092992   -0.88448606017583    0.50065153324257
H           2.36236441727233   -1.84277783750102    1.52739569235588
O          -0.22599531174020    0.18894094251664    2.06898147002762
H           0.63921211598643   -0.26925232334317    2.07095702352840
H          -0.19877729757189    0.74838192092444    1.25228878021170
O          -2.93870634735798    0.77077394269684   -0.21971992360489
H          -2.48608622452978    1.55767205104220    0.10229461355253
H          -2.40944370103349    0.50482454953993   -1.01308463353302
O          -1.22054056169223   -2.44005442153329   -0.61281431419012
H          -1.73001328496198   -2.20500741971856   -1.39551588828212
H          -0.38019630468138   -1.92565176955848   -0.71671399453848
O          -2.20816762999926   -1.11309733233249    1.30279987113504
H          -2.65073251706272   -0.35349873311519    0.74783815446851
H          -1.84136315829414   -1.76800716227408    0.58566527434676
H          -1.36195577415065   -0.63559091918143    1.74275108294087
N           2.61360367578963    1.72205746506089   -0.44535095968568
H           1.78067707134797    2.01275313515212    0.05692744509503
H           3.29641895260628    2.46813900053014   -0.40889322159688
H           2.99317831563546    0.91661624410111    0.03808654808006
