    26
        -50.46407700  Gyration_radius:  2.36411689618 Dipole_moment: 3.021
 S           0.49722408218210    0.69702236334377    1.10797503820176
O           1.28373008923187   -0.27128983567397    0.32777282636970
O          -0.58918698931405    1.23707072669455    0.28839349260467
O          -0.00736240373546    0.08146165979941    2.31916560326767
O           1.44145331255326    1.85884003635201    1.48637864309223
H           1.66782534915129    2.23978261581611    0.58530549416386
O           0.30971115915403   -2.49778892529033    1.21802978194601
H           0.81191576841347   -1.72404599849049    0.85648852190651
H           0.18159080911108   -2.27321069450757    2.14568672274843
O           1.40523619854830   -0.45004873168797   -2.27128604259623
H           1.88286980333027   -1.25216627955878   -2.48886042150750
H           1.45638328073544   -0.36031905294205   -1.29035260071440
O          -1.22366017526547   -0.37546900365888   -1.65188836699664
H          -1.04454244197673    0.33242759242492   -0.98291695599729
H          -0.35981701345865   -0.50804650020028   -2.09321339742975
O          -2.51795636557056   -0.21999618808693    1.69997604379929
H          -2.63007640004935    0.57667858736925    1.17032489793044
H          -1.62285625752903   -0.10596147644042    2.10748008095138
O          -1.89899651519477   -2.04981215754629    0.06618929518154
H          -1.63200310503817   -1.43257692127777   -0.76169476819426
H          -1.01083657414406   -2.36321661037438    0.50279891120372
H          -2.29254675232314   -1.37464388784987    0.75176218097963
N           1.57098569296228    2.54528632834512   -1.02405777410154
H           0.56350697159658    2.42056486852811   -1.02541414052666
H           1.96633029850502    1.82328897922971   -1.61478751085742
H           1.79107819811741    3.44616847567846   -1.42925555543096
