    26
        -50.46220838  Gyration_radius:  2.42254952239 Dipole_moment: 2.964
 S           0.21717348765579    1.18239058269184   -0.36220204229844
O           0.75945318542311    0.64201285567718    0.89299756962647
O           0.58720548415011    0.32504202412012   -1.47979948253550
O          -1.22613726405009    1.35441677580807   -0.26541898909977
O           0.83216552394955    2.58335963449524   -0.57598459680405
H           1.79346635910907    2.37775118739592   -0.76304490999759
O          -2.93010356476747    0.70671140627915    1.62467221880276
H          -2.38740468569309    1.15951528309438    0.94146666605449
H          -3.59855215947844    0.21145128793228    1.14445442583418
O           1.43577090995428   -1.83661189862100   -0.21601212376548
H           1.14568744671713   -1.10770408753610   -0.80653117518898
H           1.76650593799196   -1.38609134983634    0.56706892407206
O          -2.01305589193437   -0.94085526146036   -1.32486469445399
H          -1.80088571237962   -0.04035644817731   -1.00191054566976
H          -1.44960788947220   -1.05594438017548   -2.09420785231045
O          -0.99820596774245   -2.47377056917675    0.57887664253131
H          -1.50569803395811   -2.03054747288030   -0.14667982531391
H          -0.05857891144731   -2.47157869165336    0.26395508055055
O          -0.87368450944669   -0.67259264695099    2.27079264479517
H          -0.96379012420889   -1.54385125694935    1.60213495749259
H          -0.16198295920708   -0.08607439590936    1.79911880481686
H          -1.74486789020774   -0.15203391021481    2.17501091359291
N           3.14180057298885    1.51413096467611   -1.13303372121470
H           3.61064350284192    1.11755103164383   -0.32947028184822
H           3.84131753406687    1.83454510749123   -1.78976419750922
H           2.58136561912956    0.78913422824374   -1.57162444018862
