    26
        -50.46407700  Gyration_radius:  2.364134713 Dipole_moment: 3.021
 S          -0.11255158340403    1.19843277688203    0.71551837045402
O           0.42571565411443   -0.04788580813534    1.28287138480651
O           0.02699177066428    1.18732151731675   -0.74191580021252
O          -1.49354224840080    1.38225058569468    1.11499302133786
O           0.73483811406249    2.36233659456393    1.27391193892868
H           1.63801537296962    2.16344336852146    0.88274428758398
O          -1.76374753596734   -1.36885536154785    1.68293436103429
H          -0.87088919092665   -0.94072280758173    1.64946582107581
H          -2.34768432622712   -0.65677909617842    1.96460425368487
O           0.18502571288546   -1.23589555409993   -1.67502024487299
H           0.92982298779910   -1.60261107546659   -1.15599662045612
H           0.17666266354036   -0.27498900009509   -1.43564796891212
O           2.12598335114457   -1.67118086449010    0.15325685159323
H           2.18505917790136   -2.45920005541683    0.69577821377428
H           1.55252721775537   -1.04096691835560    0.65004080283054
O          -2.72189974030341    0.80351988758536   -1.10620237035245
H          -2.40400528668177    1.12117356448263   -0.22401817535295
H          -2.07420394745822    1.16011536415865   -1.72352471015303
O          -2.11749799316495   -1.63516155957599   -0.80904678736506
H          -1.12981115831435   -1.59840284252931   -1.21018227752246
H          -2.01899090358106   -1.65289270970092    0.22417680375401
H          -2.49357003591205   -0.68713401496900   -1.01025490862892
N           2.78008893065975    1.50304013668756   -0.09309163170491
H           3.59144376644584    2.01352140175674   -0.41760813467642
H           2.12250986380830    1.40702121863035   -0.86048903034011
H           3.07370938659655    0.57050124186040    0.17270251969018
