    26
        -50.45201964  Gyration_radius:  2.50309310867 Dipole_moment: 2.549
 S           1.38523066384316   -0.11123159032855   -0.24529118002422
O           1.61469442943932    0.56816879017033    1.01979339242304
O           0.49058464811432   -1.25464895631675   -0.08058253351626
O           0.86427351902658    0.80730561683921   -1.26453005629046
O           2.73817762258491   -0.62826540926026   -0.80344621973772
H           3.06384975400988   -1.20581955917992   -0.06369760808224
O          -0.54800722593036   -0.30091376691425    2.18150042732555
H          -0.44652284030515   -1.04466417888818    1.56577160238573
H           0.27532118932330    0.20428083037263    2.00397734536855
O          -1.79746565085598    1.02498797798628   -2.95048953343436
H          -1.92853742017863    0.19748116390200   -2.40973535285395
H          -0.96153034363770    0.90010206003466   -3.40804656294182
O          -2.34595312354573    1.06365935542543    0.92938106482956
H          -1.67622083722342    0.54836800860754    1.47859189731822
H          -2.86439473753906    1.58009051123635    1.54832383284817
O          -1.90870216599696   -0.90100323298782   -1.18498328990058
H          -2.36404731486714   -0.50448639851380   -0.43397840347799
H          -1.00220821501589   -1.11211253613387   -0.87230817715899
O          -1.05198327518799    2.29699553141341   -0.92446860426263
H          -0.13147267470414    1.75068358529846   -0.97367897703291
H          -1.48039891615446    1.93019922188017   -1.81122129882116
H          -1.58319606945319    1.87555444070783   -0.16615772112070
N           3.01313980181412   -1.88220524586026    1.47409164994906
H           2.66483495125729   -1.01194226797655    1.86497368242093
H           3.73704211236289   -2.25156821370845    2.07716712624063
H           2.24349211891299   -2.53901574784447    1.44904350757956
