    26
        -50.45201955  Gyration_radius:  2.50288789361 Dipole_moment: 2.541
 S          -0.28476109877222   -1.38320968604160   -0.02456697034162
O           0.42174353993920   -0.67301987881198   -1.08862258942397
O           0.54973347652533   -1.53384464342828    1.15659130591270
O          -1.55027579140884   -0.71019894030768    0.29070924786180
O          -0.68096219947456   -2.78663928222044   -0.55642429171484
H           0.20401792598203   -3.20871191647761   -0.71545774890914
O          -2.95017030261724    1.98069577688994   -0.58631274448855
H          -3.37629354725095    1.14280506642810   -0.78676785718905
H          -2.10115610296206    1.97636695881436   -1.10916705261597
O          -0.53217200972562    1.77037417300305   -1.56034550796862
H           0.01380055933391    2.26764937787445   -0.94126334712435
H          -0.23349808770763    0.83724396273619   -1.49675898491341
O           0.57675955779397    2.46393268055108    1.04905112230447
H           0.95969659612214    3.04633931059073    1.70679758468331
H           1.23614369134012    1.71378677401906    0.91391704526948
O           2.13766456309021    0.45663141688077    0.60624090279222
H           1.88346574337995    0.25127598693312   -0.30833496776319
H           1.70154779891287   -0.27737954059013    1.09111665686686
O          -1.72196096275445    1.40326099300567    1.51998977137068
H          -1.60819203046905    0.41181793068505    1.13024323928891
H          -0.81679421427594    1.85223551223952    1.40185002736090
H          -2.33200298922717    1.78574411687702    0.75452336981605
N           1.88303499328352   -3.28492878802054   -0.66805648933955
H           2.52927507344530   -4.06362291447869   -0.65332131419729
H           1.89727240476706   -2.82215678251940    0.23584874220593
H           2.19408344260541   -2.61644765454608   -1.36147913980658
