    26
        -50.46302200  Gyration_radius:  2.50650491953 Dipole_moment: 2.719
 S          -1.21101742604998    0.12109627103175    1.64989485172091
O          -0.57831486842692   -1.09798244724995    2.09771487906627
O          -0.25321811009417    1.20039333206386    1.41793891408801
O          -2.11690128006930   -0.04478833971960    0.52826144443111
O          -2.12439201488397    0.61109262466568    2.85563011939861
H          -1.58265047756102    0.42638112133015    3.61593963459867
O          -0.76032681089082   -1.24163941464570   -1.50350268000856
H          -1.37508166172484   -0.91248559556993   -0.82565794014705
H          -0.17080978061394   -1.84739218269463   -1.03056020729729
O           0.71773213193212   -2.60224344491006    0.41124897720571
H           0.25618486668258   -2.02995765713879    1.07345792042131
H           0.68880996376683   -3.49134117091791    0.76850070055580
O           3.03112890623808   -1.29949751547895   -0.21364402249785
H           2.24386330009886   -1.80541149426301    0.06335499285201
H           3.24009565163205   -1.58713301958561   -1.10402007374890
O           0.25881785490119    1.08074508976476   -2.33103274492687
H          -0.72832963590120    1.78153347342372   -1.52562247361679
H          -0.06296585856188    0.15549611168707   -2.22884137383416
O           1.91964474591894    1.18677295919713   -0.29846320979825
H           1.29202732781986    1.19563339576564    0.44064911695159
H           2.43562866648637    0.36269046163014   -0.20358185311030
H           1.02462430062738    1.15367915206623   -1.70258946098845
N          -1.40209940440178    2.13954588346300   -0.71134423573223
H          -2.09338831554648    1.39362294586313   -0.52053450281585
H          -1.82139962231791    3.04481945296812   -0.88824176231485
H          -0.82766244906443    2.10637001724409    0.16504498954390
