    26
        -50.46302223  Gyration_radius:  2.50676204801 Dipole_moment: 2.712
 S           1.30031731528950    0.48996315737477    1.50818868480501
O           0.63582339061167    1.57493925874613    0.78879641128583
O           0.40627547825928   -0.22036161052524    2.39307467638259
O           2.06644387715124   -0.35865505794500    0.61433681348608
O           2.37785373451217    1.19260364517890    2.44254316458853
H           1.85234900029740    1.49689498343359    3.17530333965813
O          -1.33390566390788   -1.90381246479926    1.43204966715248
H          -1.51016452539420   -2.53506547058360    2.13165695907113
H          -0.70153370956817   -1.24615817088745    1.81491221574309
O           0.32746356663052   -1.90889244526518   -0.79097992623623
H          -0.36813678556932   -2.08362250248521   -0.13997473147039
H           1.04584527629726   -1.49455305113166   -0.28309690756528
O          -0.11359172890895    0.02026609558314   -2.57993096370437
H           1.06624212456176    0.71690280942146   -2.09285522170355
H          -0.03296022309292   -0.82319099285320   -2.07780446437109
O          -3.27190823213177   -0.44021934053260    0.18962757871380
H          -2.62473100609183   -0.96521533647603    0.69747141413806
H          -3.60230395367837   -1.01298914758166   -0.50461166564465
O          -1.56704292653143    1.39756445364799   -0.87930179553881
H          -0.79632420967303    0.54552678210648   -2.08531135191885
H          -2.27059600127939    0.85486719848011   -0.47348704137981
H          -0.91454710744185    1.55545113146401   -0.17957663993625
N           1.85661151169492    1.19971056404752   -1.47049041249188
H           2.34563396685174    0.45501455022980   -0.94418305367176
H           1.34609588670762    1.68789081232418   -0.69566764204285
H           2.48079093443179    1.80514013900026   -1.99068908734589
