    26
        -50.46302232  Gyration_radius:  2.50669308328 Dipole_moment: 2.714
 S           0.49984548772459    1.62824473400984    1.14191555568584
O          -0.00728984689002    1.86131582167630   -0.20893654379501
O          -0.53121319779750    1.19552264962162    2.05650923704923
O           1.68886389160614    0.79615031411454    1.13453488440103
O           0.98703541387069    3.04771453520025    1.66673472757309
H           0.17242592939796    3.46493850469945    1.92757972012068
O          -1.43614470098085   -1.24540361790748    1.96092557244255
H          -1.12839742876461   -0.30562099882039    1.99381239157265
H          -1.75956471643649   -1.44573661043932    2.84084410299518
O           0.93592365820491   -1.76644620990315    0.61752737696876
H           1.31458391251636   -0.92043293467820    0.91183167701218
H           0.08293554326015   -1.82828630179363    1.07223526716461
O           0.90352982598391   -1.33805606794378   -2.01527776481277
H           1.65829846897789   -0.11261788568075   -1.80767034305255
H           0.92607195485021   -1.70896109812761   -1.10315937886246
O          -2.95410138251061   -1.45491541094257   -0.29585604024494
H          -2.47730242034133   -1.36581310050207    0.55097692334256
H          -2.88130824937068   -2.37546702649778   -0.55369094168694
O          -1.31444182858284    0.06105276777972   -1.85758690892315
H           0.00186122382840   -0.93025941098737   -2.10105288491036
H          -2.01474787919213   -0.41484193070787   -1.37039887228536
H          -1.02601419166545    0.78078007790933   -1.27527641070365
N           2.04513528671786    0.87148828187985   -1.45126141833235
H           1.19576179329055    1.45627808809267   -1.26153062988244
H           2.70722700228287    1.30884920709904   -2.08140877738958
H           2.41102646003782    0.74052363289849   -0.49232051145394
