    26
        -50.46302226  Gyration_radius:  2.50674980691 Dipole_moment: 2.712
 S           0.01520088959550    0.60200886873275    1.96024032358062
O          -0.08923231974196    1.62629054810610    0.92284893587221
O          -1.20238001901911   -0.15982060814241    2.11465273536675
O           1.21455236143287   -0.20041894441073    1.80576585813256
O           0.21553414371027    1.39355227856271    3.32447483325050
H          -0.66965264383769    1.67141229218002    3.53650195316000
O           0.84599566741795   -1.89011474325266   -0.29451014905955
H          -0.09568411808934   -2.10598997950151   -0.22484277000885
H           1.05523879469469   -1.41842251444355    0.52975223658414
O           1.55699512581367   -0.02145319169957   -2.06066726509514
H           2.12035271375234    0.76506949855946   -0.97508765342540
H           1.33877389646346   -0.85025686766243   -1.57541774369387
O          -2.61620352178774   -0.67329613318607   -1.90716972056579
H          -2.41770055862676   -1.14329991179249   -1.07527949335014
H          -2.40113221907439   -1.27799158627787   -2.61939976950826
O          -1.84881761643383   -1.97666413629917    0.36320993514433
H          -2.39902875144085   -2.61078066773163    0.82596996950801
H          -1.63775730679382   -1.27018166745334    1.02292587273025
O          -0.71057610707941    1.26842461427885   -1.75139122824537
H          -1.48445339564340    0.68139098160704   -1.85523494884234
H          -0.66244012407597    1.48211117253357   -0.80676592840292
H           0.69166848395866    0.45930400073148   -2.14298478240373
N           2.30803256486745    1.31185588503624   -0.02062995074567
H           2.38347039327153    0.61137393476126    0.73727785393333
H           1.39828669133344    1.77190056296758    0.22407906005296
H           3.09095698532207    1.95399631378993   -0.05831815396306
