    26
        -50.46302234  Gyration_radius:  2.5069016659 Dipole_moment: 2.706
 S           1.43681345065503    0.42498480346531    1.40011992178486
O           1.16126775788808   -0.88108704596748    1.95241738131544
O           1.83572960694906    0.36921183956364   -0.00494127786965
O           0.39372254625294    1.40854453020095    1.62483676266877
O           2.70606089139989    0.97561685437098    2.18361426275101
H           3.25706884233475    0.20313036115767    2.25758813969991
O          -1.05010418095022   -2.12334445447270    1.35843651714051
H          -0.19041380118368   -1.68265661116836    1.57237716859148
H          -1.23352989767896   -2.71017711809608    2.09392464001794
O          -1.37658499045934    1.19804144479087   -1.82740069993976
H          -1.79328810931088    0.89748988591046   -0.98704863816462
H          -0.33238058539614    2.05952925404869   -1.29673175556016
O          -0.83756182707304   -2.95373251321586   -1.23160082829761
H          -1.73936212016671   -2.97167940340330   -1.55655551205199
H          -0.88922059881395   -2.72811913861458   -0.28360809920303
O          -1.94363780213269    0.40854509145528    0.65660426956067
H          -1.20362844606731    0.82614445667657    1.12962508892017
H          -1.86405860756442   -0.53616076625110    0.85523026640260
O           0.41238593655881   -0.70292518917677   -2.12490095487710
H           1.03081301912317   -0.47372452808574   -1.41412566848706
H           0.05565743155143   -1.58342965518337   -1.89746423893589
H          -0.79913165969516    0.44055951865574   -2.10890884314698
N           0.53815424391642    2.49060429534412   -0.74759043535058
H           0.87465913637814    3.36764691137428   -1.12739671819738
H           1.26367514431524    1.73367420436663   -0.73113329877239
H           0.28689460917391    2.54331298225913    0.25463254000757
