    26
        -50.46302227  Gyration_radius:  2.50671666196 Dipole_moment: 2.713
 S           1.14176017392753    1.64165895083110    0.45466265458030
O           1.22800810778306    1.86993687510339   -0.96915352068865
O          -0.23759408053678    1.60382189055276    0.93643320536344
O           1.91030163185458    0.50696041717472    0.93214822750124
O           1.80136234123529    2.91276504765523    1.14539158280436
H           1.48038788136822    3.63149696492091    0.61046038811314
O          -2.02191242371226   -0.42863860040943   -2.58101066320155
H          -1.06701982874263   -0.24598905069567   -2.66614781477114
H          -2.14224906786054   -1.35477820113977   -2.79773532327259
O           0.67848677352937   -0.04759975659377   -2.64466529452764
H           0.86133540400551    0.70289043359216   -2.02636129183197
H           1.17064591176560    0.14623094899945   -3.44417387711430
O          -0.95651663047863   -2.10628049375093    1.14733271905960
H          -0.21714374242655   -2.16732781085869    0.49950273800595
H          -0.36939542777414   -1.19282368135897    2.11437396926314
O           1.13289297667138   -1.69738170436891   -0.45991676853529
H           1.56742013178629   -0.97456748868638    0.02430170243833
H           0.95653320017902   -1.33533913213198   -1.34084855270834
O          -2.27237876412102   -0.08267225551772    0.11047057174656
H          -1.60224454154819   -1.47330654522634    0.73614621489804
H          -1.66497757699034    0.64455702880007    0.31658924171772
H          -2.31240853785863   -0.13169803332617   -0.86429827616907
N           0.11309534220209   -0.32977492645256    2.63173874664078
H           0.01940485693895   -0.34667400148638    3.64056247050409
H          -0.29218062822864    0.52828625937756    2.18609496201694
H           1.09438650703201   -0.27375313500454    2.30810199815544
