    26
        -50.46256843  Gyration_radius:  2.41374477718 Dipole_moment: 3.848
 S           0.80999363067003   -0.31199460409222   -0.93335821954380
O           0.33078792236935    1.01713899252769   -1.28525869429318
O           1.23187508410592   -0.33542347332922    0.47296311823962
O          -0.19055324846767   -1.33818557372907   -1.19496782559874
O           2.04345621489490   -0.65447969315171   -1.80268937420175
H           2.65951564553464    0.10470356864635   -1.60910588832945
O           0.21397861974741   -1.77444809654459    2.41812777919170
H          -0.00851649082416   -1.09964879436989    3.06449651980458
H           0.76037765755981   -1.32259160109437    1.73378421457912
O          -2.24938641049025    0.54641353950686   -1.71570844666167
H          -2.19667261319757   -0.29235802373258   -2.18103154412650
H          -1.31633469838968    0.83533319419835   -1.62602118580724
O          -2.74843559613403    0.00943047229694    0.80555997522107
H          -2.03103958232016    0.56755301747777    1.19598292711023
H          -2.75567804456384    0.26156589709472   -0.15712247298091
O          -0.55365339148391    1.36291135779263    1.42021509006445
H          -0.57643094208109    2.05994121452340    0.75921575589626
H           0.16824104276231    0.76781681126758    1.12209674736255
O          -1.62648330332082   -2.18465224099293    0.69104375732883
H          -0.96542225764362   -2.17024975859707    1.46647471969579
H          -2.22920053183785   -1.25295150876921    0.78939488678168
H          -1.04804560007916   -1.97714740579971   -0.13008045895662
N           3.10201697177667    1.57109847246589   -0.95901852026596
H           3.74922964635584    2.26619541230507   -1.30793416659135
H           3.27456346272496    1.42986516886033    0.02786991945098
H           2.15181683241895    1.91416365528874   -1.06492861335623
