    26
        -50.46489357  Gyration_radius:  2.55401752064 Dipole_moment: 4.637
 S           0.10734058793773    0.78790413617466    0.22301113382457
O          -0.50570882463821    1.75689174956637    1.23425853118388
O           0.62036495052968   -0.38556935745533    0.93047037517924
O          -0.95488291579575    0.38108919572150   -0.72511603224943
O           1.15868502093241    1.47961320042259   -0.49524726585592
O           3.60859153323396    0.53586570436441   -0.74662000381842
H           2.73938380882519    0.98363872248078   -0.63332585186752
H           4.15235706177362    0.83353649227956   -0.01604565535838
O          -1.15444059323241   -1.76213089945556    2.31191550504618
H          -0.47067543895343   -1.32893008695633    1.75493876194716
H          -0.70596246495932   -2.04727719914877    3.10978487324747
O          -3.55171465409420    0.64498235263150   -0.15030738245146
H          -3.76114986271703    1.53824870374816   -0.42854546793501
H          -2.63411645678036    0.47490343574698   -0.44564318812880
O           2.12825426214427   -1.68205098341570   -0.79143065242303
H           2.90680919069159   -1.08573987445277   -0.77278511346528
H           1.57755525972535   -1.37062203753250   -0.03609707485703
H           1.34435015018942   -1.04414377909379   -1.88719091432802
O          -2.45545959202843    0.57039417369854    2.30160107688242
H          -1.29700843862733    1.29816251633551    1.72262505639857
H          -3.06693007077170    0.54057727935366    1.53545771459662
H          -2.12426112038743   -0.34901133283431    2.40914562010576
N           0.73153208993710   -0.36932308891057   -2.50485313795608
H           0.41588000021984   -0.79444328947172   -3.37101354311727
H           1.27478880261446    0.47654229278976   -2.67114447331135
H          -0.08358227576843   -0.08310801657791   -1.85784289129083
