    26
        -50.46302224  Gyration_radius:  2.50673769488 Dipole_moment: 2.712
 S          -1.23388428510280    1.25409788318342    1.05344671170947
O          -0.16537632481505    1.84788956577089    0.25232728450065
O          -2.31195205386215    0.73315525987453    0.24525471460639
O          -0.71441540507490    0.32445606432742    2.03945796026505
O          -1.85373797967267    2.45206693536737    1.89518382522369
H          -2.42061779325757    2.88064347850376    1.26221286387239
O           2.41084791091930   -0.92087033073138    0.09610363925449
H           1.63545254085358   -1.49407735681905    0.29678273115330
H           2.20399861375682    0.13448043570738    1.07487519897199
O          -0.31754996820411   -1.02072357965963   -3.12893451618740
H          -0.98596298823952   -1.18266636676711   -2.43659569342731
H           0.12224818449727   -1.85840519989968   -3.28397000552740
O          -2.02004654583475   -1.50618158381570   -1.05334802092291
H          -2.14080418274805   -0.63863964715152   -0.59323247586697
H          -2.90028750303510   -1.87060096806951   -1.15978993680545
O           0.03947355453478   -1.95111077911073    0.75289347886136
H          -0.62654466763313   -2.02504689647630    0.05349975080731
H          -0.28664474929459   -1.24276751601995    1.33391878778518
O           1.33715820744415    0.63239358928162   -1.73044729952398
H           0.73904749871241    1.16136569235268   -1.18025119710315
H           2.14562680209344   -0.41011465387826   -0.71349316367102
H           0.76584593854892    0.13407510610828   -2.34645876294551
N           1.79551078370200    0.96129652294830    1.70316450470686
H           1.03124533208338    0.57218174336978    2.28219608840942
H           1.25474125493710    1.57373952198934    1.04622223479398
H           2.49662780469803    1.45936306961394    2.23898126705943
