    26
        -50.46220852  Gyration_radius:  2.422865514 Dipole_moment: 2.969
 S           0.19174090202601    0.34138148189341    1.19194802264266
O           1.43329256820215   -0.25377508206594    0.71734228403689
O          -0.33564902796838    1.28117210413484    0.19177829208328
O          -0.80351535902963   -0.67030281149360    1.52041060882588
O           0.47649128819558    1.14010445202714    2.48332986391590
H           1.25226867121627    1.71588742321822    2.22284547828148
O          -0.60255940506900   -1.22913560042302   -2.36120649698201
H          -0.44192312715526   -1.88197761863367   -1.63444427930543
H           0.21690008398460   -0.67228048631997   -2.38335620980402
O          -0.05563399357651   -2.58133944146283   -0.15251829899642
H           0.90173139179067   -2.60590676172410   -0.07897412014568
H          -0.33680653127983   -1.95671473004827    0.54820881586357
O          -3.18047877628753   -1.16085327696107    0.51707793439865
H          -3.13170680206420   -2.09744230459629    0.30946583315325
H          -2.40720170906662   -0.97214886917561    1.09379961428803
O           1.38753499616614    0.42245007459686   -1.83828679331133
H           1.52687003967168    0.10121251354353   -0.92099976708867
H           0.90829636001822    1.24921227612576   -1.72668864615576
O          -2.15442807952851    0.35848364655365   -1.26870831914475
H          -2.71358772492869   -0.20718999132993   -0.63137932284152
H          -1.46284647930544    0.83539334000533   -0.66232164194529
H          -1.53697920597590   -0.35033290103749   -1.84345804869548
N           2.52991434306026    2.28416119535686    1.35918431379127
H           3.40522293717800    2.56064238157810    1.78425072122238
H           2.28268468138727    2.96704442319699    0.65539025657760
H           2.65036797832029    1.38225456304273    0.90730991531026
