    26
        -50.46220848  Gyration_radius:  2.42274424657 Dipole_moment: 2.972
 S           0.31769044283204    0.45043118285831    1.12718738118415
O           1.53200082879853   -0.08632909446176    0.52852073206066
O          -0.41490981511208    1.26443849533229    0.14627254351693
O          -0.53585893758572   -0.60329574459772    1.65935301082770
O           0.70114614443768    1.36932677049305    2.30842243211674
H           1.38446497053746    1.97849574723492    1.90444521034806
O           0.14518870916293   -2.58110054365766    0.03684733103425
H          -0.09372920681771   -1.92496965339817    0.72439026012024
H           1.10239303712615   -2.52669284607675   -0.02103366888853
O           1.09175683807610    0.37488249232047   -2.03699762416068
H           0.56305086010064    1.16999237811441   -1.91906623305288
H           1.37767094269730    0.14075807189778   -1.12727150624008
O          -0.80253459522013   -1.45645764774044   -2.16320459807563
H          -0.49204739125680   -2.03473176557892   -1.42181061836944
H          -0.04336341078539   -0.84330854927340   -2.33689520590859
O          -2.97278539509668   -1.35429824291470    1.03028770815336
H          -2.15002365978550   -1.06097289647157    1.48092261964633
H          -2.86930510273518   -2.29764997456022    0.88134099931360
O          -2.32618494610675    0.09232558811084   -0.97992785095189
H          -1.73095206002830   -0.61248082805421   -1.58437759361115
H          -2.74541653026309   -0.46130863190941   -0.23395236365301
H          -1.60428654231457    0.66735672673494   -0.50997140019378
N           2.48276211556292    2.57015807232653    0.83441118749765
H           3.37911255193541    2.94864706266375    1.11118912478706
H           2.08334433017324    3.17072741501469    0.12540056566161
H           2.62081580170321    1.64605640562255    0.43551754682774
