    26
        -50.46220854  Gyration_radius:  2.42263752477 Dipole_moment: 2.968
 S           0.87642472298415    0.56208033128630   -0.70109190611840
O          -0.33749763566200    1.26730569917771   -0.26433803443365
O           1.56040625102780   -0.01931920640589    0.44566886093093
O           0.55296451201590   -0.44206086965481   -1.70568147075746
O           1.80627266902595    1.59779654354863   -1.37141355290487
H           2.09227511946590    2.17103596429067   -0.60268495984189
O          -0.29812180595656    0.18409632794145    2.31492605180931
H           0.47155324685645    0.04283606200025    1.72183898022070
H          -0.71462229488935    0.98086938934637    1.97253448074994
O           0.30825853453813   -2.56381320346839   -0.14088090916874
H           1.05395093948893   -2.50633917796974    0.46178296116957
H           0.46453232876855   -1.84554117115543   -0.78888317907516
O          -1.75102328479193   -1.27276929729228   -2.65369004062342
H          -0.83942890554954   -0.92891791212838   -2.52358407238755
H          -1.69068995979678   -2.22545712074211   -2.54681253727578
O          -1.79874233392782   -1.67193561786211    1.18994258770533
H          -1.31808343882433   -1.07125050886261    1.81459897006963
H          -1.08292869249226   -2.17058505802513    0.72181189503255
O          -2.46797087252938   -0.02902694744925   -0.53502285939550
H          -2.28196152922565   -0.78342529389662    0.24617373358728
H          -1.64584406288291    0.59672631443764   -0.45862313095154
H          -2.34753756420170   -0.50975565160832   -1.42570953643010
N           2.33695611820737    2.66457852661900    0.94565399881422
H           3.20374499948729    3.07675953863347    1.26513926034450
H           2.28096626817272    1.70713986854186    1.28069298797039
H           1.56614668062233    3.18897248066055    1.33765143095150
