    26
        -50.46220846  Gyration_radius:  2.42264900953 Dipole_moment: 2.968
 S          -0.68867177416869    1.04718796725714    0.06486721972960
O          -0.55316635298600    0.54424222525248    1.42486970597454
O           0.61190965924171    1.01568835862512   -0.62011073969777
O          -1.68533952875871    0.30167288891631   -0.69202816009423
O          -1.15772445140002    2.51827482373532    0.11542651419243
H          -0.51044922046599    2.93689078096584    0.75348953697709
O           1.84133992384713   -0.57249025421848    1.32789919472940
H           0.94674367551721   -0.20603583205112    1.49959624309851
H           2.21674869324694    0.02324412617125    0.67234010571800
O           0.99305592620375   -2.53228863885555   -0.22207647231972
H           1.44944515663576   -1.96818421866865    0.45277811011337
H           0.04173099171448   -2.53020708953658    0.05208335053583
O          -1.48041860382039   -1.16751367849843   -2.85902390315065
H          -1.72236897796339   -0.50955380733675   -2.17002534982144
H          -1.89844053243399   -1.99101893196602   -2.59495106284706
O          -1.49751809788072   -2.04108244445769    0.52759113590827
H          -1.46049478426281   -1.82331169982869    1.46233664188304
H          -1.68276654120029   -1.18579017340917    0.08678236432498
O           0.96352258230969   -0.95652833342263   -2.12967995293518
H           0.86890431793305   -0.07984518421682   -1.58560428272709
H           1.03563098646166   -1.72972392482707   -1.34833580517595
H           0.05496941977910   -1.08741090906674   -2.57282583022906
N           0.65653782027989    3.06664204822761    1.90317537161110
H           0.45662042710917    2.12935305751768    2.24021389572459
H           0.60237872262946    3.71532869508155    2.67746625849220
H           1.59782056243358    3.08246013860537    1.53374589998226
