    26
        -50.46489355  Gyration_radius:  2.55408116294 Dipole_moment: 4.637
 S           0.31444654978392   -0.66611703542779    0.37280478910855
O           0.24649002360345   -0.43946058010620   -1.07104711000684
O          -0.59850567877393    0.26577642518253    1.07344735184678
O          -0.13842651104041   -2.09370893748179    0.67996045924773
O           1.66207840414994   -0.49442813657424    0.87692928839369
O          -2.13380018703057   -0.72843021262129   -2.16827429446566
H          -1.98433349241395   -1.13999682460080   -3.02109017822176
H          -1.24396424399993   -0.53646715485539   -1.79850316103452
O           3.65193660883457    0.43233790771673   -0.58487453894432
H           4.09938903814118   -0.29005075412863   -1.02744766725526
H           2.97830473879284    0.01335140323702   -0.00220226647015
O          -3.01714301259146   -0.48531134106408    1.92772160239992
H          -2.85229504549836   -0.84985662264257    2.79898131590153
H          -2.16879444046147   -0.09997397311778    1.62785756881499
O           1.56102707849151    1.79270236660024   -1.52852715941393
H           2.47164793782783    1.44249921630578   -1.42778834539484
H           1.00041159269212    0.98274735482506   -1.55047226165709
H           1.28342580932998    2.19045276594011   -0.11897508742629
O          -2.55052990506400   -2.26895326099489   -0.02680717560593
H          -1.12141786460232   -2.22177148762336    0.37593610107257
H          -2.96125671277776   -1.69221839414396    0.65172958865399
H          -2.57528308903322   -1.75080428889183   -0.86193708214259
N           1.07501209436032    2.20526296162036    0.96211822523227
H           1.89125414791839    1.82600550872933    1.43977480872413
H           0.28538254331307    1.48075302152122    1.09086276931943
H           0.82494360605454    3.12566007259278    1.30982247932695
