    26
        -50.45628215  Gyration_radius:  2.47357430463 Dipole_moment: 3.188
 S           0.28516756596905    1.31619171797021    0.69845822787768
O           1.29735039492462    0.28439985108018    0.42472747516550
O          -0.42579105453962    1.63261216052702   -0.55755936177899
O          -0.61579559304542    0.92010742573928    1.74705546238579
O           1.03164893238845    2.59537132145207    1.13783901044226
H           1.60122709499534    2.76934550124479    0.33772681257678
O          -1.66504504465753   -1.50753604115505    1.94573449566901
H          -0.82768081784133   -1.98579612421780    1.80887322680559
H          -1.39003110562560   -0.57140088340918    2.02965327757561
O           0.93872196584528   -2.15220392924024    1.43692437168187
H           1.45752142813747   -2.31493612375433    2.22571166521385
H           1.11223177188770   -1.21893226875170    1.18350366841059
O           0.81770563264728   -1.52693613650566   -1.41507955116785
H           1.13723320280878   -0.80956295989475   -0.81705348862166
H           0.75554502479062   -2.30194846508452   -0.84588507547740
O          -3.02671143751824   -1.34981224882648   -0.22611625909411
H          -3.75915506401938   -0.76963684057573   -0.01091457483816
H          -2.52610660269671   -1.49511230016774    0.64007970420018
O          -1.36583575469633   -0.29093123881616   -1.78791571801807
H          -0.53575723859199   -0.89698098590851   -1.76926765546541
H          -2.09066200836845   -0.73724796522501   -1.17766826250652
H          -1.02734289256483    0.58402192494125   -1.28504685281313
N           2.18754512708682    2.56259868187526   -1.19190471982208
H           2.66573938190135    3.20838305216224   -1.80668795203721
H           1.26481756942421    2.36333158642821   -1.56406746800897
H           2.70345952125952    1.69261128812908   -1.16112045832370
