    26
        -50.45628219  Gyration_radius:  2.47364852595 Dipole_moment: 3.188
 S           0.72314082918114    1.13764983524938    0.69613064853477
O           1.25971172182697    0.39137489669795   -0.45245899409814
O          -0.63204477777177    1.62126335771241    0.36024085177336
O           0.73590066204362    0.35202271110940    1.90061545606779
O           1.61631089331657    2.38135052925708    0.90117974987491
H           1.51413208001874    2.83810562633440    0.02031260852206
O           0.00237988798651   -2.19458636967990    2.00403228978227
H           0.51898142199899   -2.47493008674108    1.22739014776482
H           0.29542986100694   -1.27344388624673    2.16101825445025
O          -2.45301849839034   -1.75420611808788    1.39316285491058
H          -1.50819210564607   -2.01576055017566    1.63997722998528
H          -2.83638265460642   -1.37828621586889    2.18759121769855
O          -0.38546024085883   -0.97685997356066   -1.97475512463327
H          -0.07962511504483   -1.86517934828649   -1.76064819983890
H           0.27569996792272   -0.38126498480190   -1.54757983337227
O           1.58197171864681   -2.24163036755669   -0.22237443293754
H           1.57473795969514   -1.25927570107565   -0.23905707347657
H           2.48821546786253   -2.49843421946734   -0.04750330276019
O          -2.21835580657979   -0.08036509114683   -0.46761177569083
H          -2.36770091834496   -0.77841665981672    0.29871270190748
H          -1.60106191072005    0.69199280215659   -0.07353234570764
H          -1.60829871033774   -0.52143744196507   -1.16758056881265
N           0.92544712072926    3.11035180445207   -1.49794719618618
H          -0.01665449177488    2.85082584861075   -1.22457183886512
H           1.30068809990780    2.36114038859869   -2.06527417992124
H           0.89404752790809    3.95799922432950   -2.04946915498443
