    26
        -50.45628215  Gyration_radius:  2.47363635233 Dipole_moment: 3.188
 S           1.47119295270396    0.28273561323320    0.23903201857032
O           1.11646282385559    0.88233610687065   -1.06398587832137
O           0.40121326881519    0.57705452014473    1.20471470683132
O           1.72790430603547   -1.12847086035933    0.13515727067266
O           2.75279418361882    0.98846539082730    0.73505511903028
H           2.45362780594274    1.93985656033962    0.75154768585122
O          -1.12261022273376   -1.42874108989264    2.06778996000319
H          -0.47034233061192   -0.73189803870042    1.83479620652447
H          -0.87306057610207   -1.74762514200924    2.93603132246254
O          -0.18070307224371   -2.96617678412890    0.01759298399071
H          -0.69991084638909   -2.61334777458667    0.76229097099998
H           0.64575463282732   -2.44121394998763    0.03775312917374
O          -1.11912730921289   -2.18221223597889   -2.24087424431635
H          -0.47779362687695   -2.48304045636421   -2.88708087717210
H          -0.81277627241780   -2.55653452039020   -1.35314872788601
O          -2.07960547593918    0.74009718900071    0.35913885892732
H          -2.43716352803616   -0.03768508579068    0.80152008333468
H          -1.17185505601764    0.83876256158842    0.73412516373415
O          -1.11769688575898    0.31459763964748   -1.94915191775428
H          -1.14220320334786   -0.71894157322560   -2.11675827725934
H          -1.66370872429149    0.49881329974283   -1.09790908600585
H          -0.12674361005478    0.56085600813510   -1.64848617273006
N           1.44773089760243    3.22730005673098    0.51348568986678
H           0.69918679438659    3.10474606128913    1.18329710113953
H           1.12782149861689    2.86607131460598   -0.37916648641078
H           1.65161155563189    4.21419518925078    0.42323338674898
