    26
        -50.46273312  Gyration_radius:  2.44591762328 Dipole_moment: 1.685
 S           0.84464082410133    0.76525865967531    0.65330867172628
O           1.25911082322983    1.33124549847749   -0.61959417887074
O          -0.59614512092210    0.94705229196702    0.86004464647686
O           1.20430618707717   -0.64664494277043    0.76067121340733
O           1.58019947505772    1.49641565387292    1.80249494368065
H           1.28854653742981    2.43929833950292    1.65632371135285
O          -0.59656733854240   -2.11526004426526    2.04946403694701
H           0.06512107107265   -1.49503423861149    1.67811397064938
H          -0.13917423956506   -2.63828346717078    2.70896537116093
O           0.91370812443539   -2.16475459616840   -1.34852700336573
H           1.09591120585832   -1.59786494540946   -0.55783693674470
H           1.69987538237552   -2.69536777498165   -1.48376807839608
O          -0.09073994377124    0.11017189738782   -2.50519330265147
H           0.47136007802503    0.68070528639537   -1.92734515215050
H           0.30564779042371   -0.77459200988454   -2.43206677115948
O          -1.62250511042094   -2.54957697118868   -0.36933237355053
H          -1.40527858948943   -2.51918529604247    0.58782754254602
H          -0.76644898664127   -2.65054731242203   -0.82302906210766
O          -2.01025665628705   -0.12245871179057   -0.89465115440303
H          -1.97622551774625   -1.15349209049780   -0.67243828228355
H          -1.52330623423393    0.35020049959046   -0.10312976223321
H          -1.33522712532818    0.00649701498287   -1.68328608449456
N           0.48887872482011    3.65113197378948    0.85657544209402
H           0.55700857722303    4.66103623659075    0.86075798957514
H          -0.47742140937925    3.38437046402610    1.00057536639043
H           0.76498146119825    3.29967857494850   -0.05492475360504
