    26
        -50.46814426  Gyration_radius:  2.48660541342 Dipole_moment: 4.357
 S          -1.27933720177546   -0.52292742408760   -0.17474472400225
O          -1.79425297788031   -1.86038838778641   -0.02886112697589
O          -0.32976880770207   -0.42107761461901   -1.29059951455661
O          -2.45453373048798    0.42869478332115   -0.44001941288770
O          -0.60954917226294   -0.05999895566814    1.06270816078378
O           0.63443702899634    1.95146660837085   -1.80731431115304
H           0.45649014292027    2.15483599449103   -2.72714958909093
H           0.23296038901407    1.06364845564446   -1.64161201566831
O           2.33293372425679   -0.47745871055458   -1.21721027849189
H           2.48436061475918    0.46959852589229   -1.29794861039304
H           1.38094473332951   -0.58927148537328   -1.42541208384569
O          -0.79538965032023    2.30200166714722    2.26420349606752
H          -0.67902511128173    1.39708925717193    1.90691009137324
H          -1.54987288572957    2.26072444484147    2.85410871514945
O           0.17393795570732   -3.54218247480024    0.14689450458947
H           1.13827358002925   -2.42478879734950    0.79293119813401
H          -0.65964512408104   -3.00370534394009    0.11838571885681
H           0.33824386548485   -3.80455532374494   -0.76106661244756
O          -1.46128590122854    2.77478061146180   -0.30201495606720
H          -0.62736125012309    2.69345227150599   -0.80552419397424
H          -2.10327609631245    1.38258736889124   -0.40923771475862
H          -1.20135656299811    2.83144288022959    0.64099150405342
N           1.53426668951527   -1.49039707696838    1.09423887173799
H           0.67627050744800   -0.85736076069870    1.20386548623463
H           2.08968159406674   -1.09696032000891    0.29239765197833
H           2.07185366665033   -1.55925017337432    1.95107973534294
