    26
        -50.46192235  Gyration_radius:  2.42584312476 Dipole_moment: 4.589
 S           1.35955560335702    0.24388978747815    0.18793888628040
O           1.05231755599915    1.43972407403017   -0.59454054637144
O           0.29752502633845    0.02799901031111    1.18961098049505
O           1.53433922422316   -0.92979282238687   -0.63325910245744
O           2.67522911165481    0.49157598775571    0.96969923645281
H           2.45968280803846    1.31805480178513    1.47653178848209
O          -0.30203312480474   -2.48421241743746    1.50363620214184
H          -0.66191724443701   -2.53791618789136    2.39109701361498
H           0.06524391577620   -1.56840879947886    1.40573047317186
O          -0.29793382394729   -1.71431746155211   -2.29881642055633
H          -0.56541808842173   -0.81405040446935   -2.56618302911025
H           0.51230242635642   -1.56300048119621   -1.74992562273766
O          -0.81653671620136    0.95374261234695   -2.30220789624240
H          -0.79404308905460    1.61176775912455   -2.99842949599828
H          -0.05103555839692    1.16384870558947   -1.69920257848704
O          -2.05596022041172    0.25881067951521    0.04117635859552
H          -1.21268200884480    0.29152088373893    0.55525890337497
H          -1.84984112562279    0.66904974812684   -0.81604060588382
O          -1.89790651726903   -2.20311678405875   -0.46207820495869
H          -1.24069204501238   -2.10996597337721   -1.31411564872993
H          -1.29166399843081   -2.48108978220631    0.31342593994535
H          -2.12709647710424   -1.20653260439787   -0.24438501558941
N           1.51686412251571    2.63098333132497    1.92542915587040
H           1.16586232760151    2.67767391717822    0.97278104918261
H           1.75431194621480    3.56314602994922    2.23959509884542
H           0.77152597988507    2.27061640021347    2.50727308067400
