    26
        -50.45439742  Gyration_radius:  2.5151422352 Dipole_moment: 3.291
 S           1.50769154856196    0.60958473642996   -0.05506978862755
O           1.12615107820236   -0.19633177395016   -1.19774579799614
O           0.34362045528168    0.72947659997937    0.87712666717230
O           2.66051538087836    0.09283085200287    0.64735104313451
O           1.81762208789340    2.04455340134175   -0.51995866974690
H           0.93254939302085    2.37233674970335   -0.90710327996450
O           2.31832290492195   -2.25399124871076    1.63446215318115
H           2.99595834587764   -2.35316898348273    2.30689574427110
H           2.54524282634034   -1.41531193612770    1.14351270532739
O          -0.97500248254234    0.09844172820303   -2.67328790670810
H          -1.00040358193666   -0.60074794910794   -3.32781952020476
H          -0.13087758116074   -0.03749662005281   -2.16762667337366
O          -2.03709794058403    0.11580641318148   -0.16194174625218
H          -1.86056014833167    0.04174249803092   -1.11749835414426
H          -1.19688396686801    0.44792112855491    0.21849381632540
O          -1.91530094069042   -2.14588608012105    1.10860617449393
H          -2.70491648085222   -2.21810356291993    1.64773541873369
H          -2.04041193357023   -1.33066253168718    0.53677559147447
O           0.11176685945130   -1.24198509904253    2.34169051283733
H           0.22942770372918   -0.33271588577409    1.78072746493980
H          -0.68923237631485   -1.70937267241509    1.88328778370487
H           0.96990949816173   -1.77136680186472    2.12048908371719
N          -0.50383376894718    2.72620537424232   -1.44413751328362
H          -0.57953624076772    3.62853056853532   -1.89483653264059
H          -1.15587675126846    2.69407078588161   -0.67041361605367
H          -0.76884388848083    2.00564032917715   -2.10971477031241
