    26
        -50.46192233  Gyration_radius:  2.42578846936 Dipole_moment: 4.589
 S           0.71979476137727   -0.10017320404327    1.18961734058398
O           1.14519390249868   -0.39511555048446   -0.19240582796673
O           0.36204593925125    1.31311518721621    1.29576012685894
O          -0.35192246559897   -0.97822698212092    1.59319175770166
O           1.94098562580130   -0.36918970690706    2.10605390671965
H           2.60184511540656    0.28905422933177    1.76487226702653
O           0.31296710844934   -2.71171079223353   -1.03498910536712
H           0.68205910456988   -1.90180807529096   -0.59792748399332
H           0.93962733287951   -2.96033636200188   -1.71724404379465
O          -0.58186731982775    0.63757734123512   -1.88411705728145
H           0.16722344744688    0.34390303299285   -1.31044908025899
H          -1.10809450127003    1.23957591798546   -1.33066462952529
O          -1.93909170530760    1.75167645858175    0.21980541288596
H          -1.07635327987689    1.61171940166507    0.69921433259408
H          -2.30041131628178    2.57213655220056    0.55822001128887
O          -2.71045266347078   -0.83791342473375    0.51411438780864
H          -1.90020290964853   -1.02507876295606    1.05180966970626
H          -2.71325238118084    0.13530479641758    0.43450870102838
O          -1.84353724813326   -1.53411808371961   -1.70764579093961
H          -1.37772152522591   -0.62642894175783   -1.93610399222502
H          -1.06048047741122   -2.14967150132652   -1.47493942311355
H          -2.32273624273101   -1.31872956743752   -0.76397823039878
N           3.13482093512555    1.56267085537088    0.81190244199522
H           2.20391165432586    1.96668341910638    0.86775310731506
H           3.25245674358924    1.19729977763100   -0.12438496913102
H           3.82319238524841    2.28778398527968    0.96802620048008
