    26
        -50.46192234  Gyration_radius:  2.42583574671 Dipole_moment: 4.588
 S           0.71660161294008   -1.13904070481502   -0.36304731608938
O          -0.20348254967865   -0.31273821164016   -1.16844002771837
O           1.85080018880645   -0.32326491277815    0.06680322313234
O           0.01957898397268   -1.75117567856932    0.74233291975938
O           1.24290686810820   -2.26461027477414   -1.29018742505012
H           1.71650321125901   -1.74634741935025   -1.99273525085845
O           1.16294809017855    1.24631321178869    1.99254571345372
H           1.48259809893807    0.61246528722008    1.29268287050511
H           1.94446021981945    1.53384414120693    2.46669891622165
O          -2.70813624368018   -0.83677956577600   -0.69835836928591
H          -3.16482782429198   -0.57406895623693   -1.49985684504762
H          -1.73845956465541   -0.78131361340474   -0.89796878046761
O          -0.92273146953270   -0.34185172862259    2.71031999981930
H          -0.61939636783275   -1.03850488876804    2.07530553479781
H          -0.17877275398137    0.29030280127400    2.73008832599678
O          -0.63869276232645    1.97095737714349    0.05883153274468
H           0.05254044913209    1.99549874790241    0.74236213427819
H          -0.41353621270250    1.19632543501596   -0.51190160987924
O          -2.54631679507269    0.81906011987373    1.23077945390188
H          -1.84652437072233    1.43451527495595    0.75686560790552
H          -2.76366508588778    0.11690307053478    0.51941931859916
H          -1.94346877424018    0.30164322333817    1.96240099815655
N           2.32604474680036   -0.36218001903013   -2.71838767364438
H           3.13467024478153   -0.20166225345388   -3.30522482565076
H           2.50226117887007    0.01985234799976   -1.79321513409836
H           1.53609688099677    0.13585718896290   -3.10811328147672
