    26
        -50.46385724  Gyration_radius:  2.40990166992 Dipole_moment: 6.523
 S          -0.09219259334043    0.98263966085554    1.29043195525866
O           0.31790429238179   -0.41459967126039    1.10898947533782
O          -0.07269683891387    1.63060098322101   -0.12812643782003
O          -1.40727930268234    1.09067602345383    1.86155951843600
O           0.95362159349569    1.72843973556732    2.00422651529532
H           1.92878900331059    1.82135670502807    1.03385773237196
O          -1.14147599027199   -2.52993951915287    0.29061266404529
H          -2.03381082922788   -2.16699783668705    0.35144241908577
H          -0.58854390585150   -1.87738740244785    0.75544272883424
O           2.27075764128252   -0.75472661080877   -0.48044850349964
H           2.77996322383896   -1.49926121497155   -0.15444023650858
H           1.47928979010429   -0.67712753501201    0.13469947674793
O          -0.09512490534015   -1.65199876253042   -2.02743290361142
H           0.78574753083336   -1.37596803255989   -1.74962205627219
H          -0.46826238877039   -2.16094577774730   -1.27296229621774
O          -3.07012205433510   -0.48536718838873    0.58930728213474
H          -2.46951593993298    0.06806575277891    1.14517467286275
H          -3.96112845105200   -0.21158213227311    0.81272018828695
O          -1.69920552141399    0.40471125971246   -1.58447769841860
H          -1.14523301334286   -0.35352247099292   -1.90396323773406
H          -2.32802010358456    0.02430596584724   -0.94077336910942
H          -0.77305153995927    1.17193057127962   -0.74578859207835
N           2.59620983368619    1.82619095755869    0.11218460282017
H           2.66477875760808    0.82289871522733   -0.19647748777957
H           3.50437825040936    2.24650248939797    0.28106226821252
H           2.06422347117817    2.34110532489008   -0.58719867069650
