    26
        -50.46385740  Gyration_radius:  2.41000171428 Dipole_moment: 6.528
 S          -0.18727903530507    0.93075163902110    1.31798044468556
O           0.45294400967182   -0.36806767022126    1.08055002350577
O          -0.36523978170944    1.59184776135019   -0.08333749167778
O          -1.46534295611176    0.79395326389377    1.96225686025774
O           0.74921668858541    1.84116170591380    1.99148269664668
H           1.63423702122599    2.11974914422282    0.97192747876216
O          -0.65573092631092   -2.69571837996186    0.28840904246248
H          -1.59306272279673   -2.49930385246717    0.40882445694950
H          -0.20042271817948   -1.96257831035116    0.73877573186396
O           2.33392088514096   -0.33070411203826   -0.62719495305695
H           2.98511178193067   -0.97867337747058   -0.35156674041939
H           1.58015199821538   -0.40500688216605    0.03403122583456
O           0.07676508889156   -1.61040819891764   -2.06199220705664
H          -0.15407418919293   -2.18903995149092   -1.30087794998430
H           0.90948387657459   -1.18524796195722   -1.82714765940909
O          -2.89614993974214   -1.03488840387850    0.74752799294546
H          -2.37098779881543   -0.39129437037257    1.28223337681010
H          -3.80660692348596   -0.92777330106868    1.02744961367449
O          -1.83688937749768    0.11999613823878   -1.47560066829417
H          -2.34874635196560   -0.37632076351451   -0.80765277930529
H          -1.01051426623368    1.02625806466689   -0.67128248392489
H          -1.17819963186643   -0.52246622570313   -1.84590235824154
N           2.23651792108149    2.25708548195665    0.01601944503811
H           3.06603502482991    2.82671744483614    0.14785789876240
H           1.58442953667357    2.68321552098688   -0.63999856838001
H           2.46043279641666    1.28675557647925   -0.32277242846200
