    26
        -50.46385733  Gyration_radius:  2.40996709691 Dipole_moment: 6.533
 S           0.70690852472447    1.06642068679369    1.00048877469924
O           1.46448498169301    0.66343424571598   -0.30188381056577
O          -0.67352893890620    0.59738337630383    0.83392969686715
O           1.34566583112212    0.47262268303220    2.14355817520119
O           0.75063622964377    2.53477192062805    0.96214562569638
H           0.50675113157518    2.77728849891422   -0.37338767870901
O           0.95776724059575   -2.11898210703456    2.14657070297418
H           1.58794105691361   -2.50828229486412    2.75495144182271
H           1.07014576799640   -1.14096881774764    2.22943563006645
O          -1.66587374034015    1.00922716872977   -1.46834988723164
H          -2.60186954127373    1.18236176557317   -1.35062987425355
H          -1.31142656017211    0.79810429858551   -0.55132910447196
O          -1.08903187575812   -1.89918066827980   -1.43432696438056
H          -1.30984082509443   -0.99663620299007   -1.69114161408578
H          -1.46261964275067   -2.02162895821208   -0.53275693131680
O          -1.69004295673850   -1.87564079689254    1.18829335952046
H          -1.45634475313845   -0.93082234249653    1.20564823031449
H          -0.95899608152277   -2.30671392436986    1.64808505977927
O           1.39373192852633   -1.82993871647616   -0.52253355451242
H           1.26980830231343   -2.12991759121262    0.39896678685747
H           0.51930351732385   -1.96280447073820   -0.97143676056675
H           1.49272568034030   -0.37182942952647   -0.39847941916608
N           0.32586558629341    2.78397954867488   -1.49671225353173
H          -0.52971961496975    2.19184979748883   -1.65176122011683
H           1.12896505389883    2.29631329185377   -1.88965905034978
H           0.22859368771684    3.71958901847830   -1.87768539049308
