    26
        -50.45364996  Gyration_radius:  2.43639741228 Dipole_moment: 4.223
 S           0.14620004508539    1.02324104197328    0.49077816311740
O          -1.10243245918153    0.25156860653459    0.51560121560408
O           1.25158930114943    0.13824353945159    0.05981528236282
O           0.05506280844306    2.17436099315335   -0.38040694363275
O           0.44732989580192    1.50784040048227    1.91551224069939
H           0.18138505820643    0.72173041188039    2.53120407960727
O           2.04420785399210   -1.62985122873694    1.90620879211064
H           2.96414649017127   -1.45668824553469    2.11072379102390
H           1.80014750552001   -0.98801504952840    1.20773807154535
O          -0.10764610277780   -1.70625985446749   -1.12747700504232
H          -0.86724726286188   -1.64222668987450   -0.53636917340622
H           0.55459296127160   -1.11116056914032   -0.68561047103889
O          -2.44607781040913    0.89982503708298   -1.60272165936363
H          -3.33186833524141    0.55617079824920   -1.47455091559316
H          -1.96209301419276    0.78287788616402   -0.74220839015258
O           1.25786242712913    1.35914956070689   -2.48183011758873
H           0.80567153196379    1.85795997434016   -1.74261490859534
H           1.90201719585610    0.81268182070869   -2.01681357128384
O          -0.64474950718285   -0.16052864918572   -3.03836470018649
H           0.17554759979053    0.51311975475933   -2.93538723020387
H          -0.42263767665360   -0.91887824895934   -2.35140009664752
H          -1.44031000344987    0.32263301951681   -2.60918481683641
N          -0.25059538563573   -0.58750979463031    3.19720453544190
H          -1.05908727201045   -0.84186294144200    2.64500986395925
H          -0.46974828437320   -0.66347348666156    4.18065696497733
H           0.51873244955617   -1.21494807690761    2.96448698919468
