    26
        -50.46385737  Gyration_radius:  2.40995532828 Dipole_moment: 6.533
 S          -0.84657147819752   -0.01548519768300    1.38584596258775
O          -1.35017292057947   -0.90016594867263    0.20425207612670
O           0.52064901180010    0.39061610780323    1.04070808251454
O          -1.71870686413256    1.11430445197921    1.55955349456723
O          -0.82532049942484   -0.95809395816505    2.51298707879693
H          -0.31612839613777   -2.08870277188279    1.90955427847554
O          -1.44069019822458    2.78266708175544   -0.44192848339688
H          -2.19240829774626    3.37736725832676   -0.43355610179943
H          -1.52868864176892    2.22352907999884    0.36776800816948
O           1.27413914660316    0.26480215907789   -2.27066257914504
H           1.45908087599456    1.09802404411936   -1.78185234697487
H           1.57578753093617   -0.44961318482109   -1.69801557877243
O           1.35091870233424    2.36832758365788   -0.59462549893743
H           0.52758771828381    2.85651556268046   -0.71907121477957
H           1.15542484021334    1.75750060816588    0.13769548435816
O           1.95873895711969   -1.45335306693690    0.04747592620541
H           2.85976620317333   -1.30388402344906    0.34024903768254
H           1.42415387740606   -0.68266197770963    0.40989501398564
O          -1.33445872363506    0.47988079350988   -1.88511380277725
H          -0.39482489679168    0.37302640863801   -2.18428401372004
H          -1.39911507783981   -0.34118653104221   -0.67163380225324
H          -1.40510527156335    1.39366419723913   -1.54668103013164
N           0.08080053690311   -2.92246452826657    1.24474276565034
H           0.28662992183659   -3.77442402969906    1.75641614054871
H           0.92674486253695   -2.52480076068787    0.76217277198329
H          -0.64823091906660   -3.06538935795231    0.54810832107121
