    26
        -50.46385742  Gyration_radius:  2.41000038766 Dipole_moment: 6.528
 S           1.45021496418565    0.58982361422229   -0.43304452428599
O           1.14399690057793    0.42766182104502    1.08765396373074
O           0.41513333844312   -0.17018590146671   -1.14317039089313
O           1.43963252495225    1.98247261692752   -0.79038987412841
O           2.75333223917051   -0.07412279385387   -0.57584553536977
H           2.58121582235592   -1.18062888006423    0.22827481303144
O          -2.43673506168617   -0.72437171212309    0.62233884991918
H          -1.79094418527849   -1.43624320507026    0.54757028569658
H          -2.51336320055592   -0.33478906272050   -0.27751665476743
O          -0.13203341803703   -2.43271841060217   -0.12476800941912
H           0.02683897168535   -1.53584271266328   -0.55057769495409
H          -0.35607289019133   -3.02528370518730   -0.84490321292652
O          -2.11928828957176    0.54092184725163   -1.73092794319844
H          -1.18474283448684    0.26863846319104   -1.72108260563799
H          -2.09050037057306    1.48656595904822   -1.53961559943054
O          -1.00510081943635    2.92088545265207   -0.68968928051759
H          -0.95107629265620    3.87784544273238   -0.68199215243232
H          -0.07937868460144    2.59845849059642   -0.81234366690360
O          -1.12602787683644    1.37938228661554    1.54792580141797
H           0.22502645891518    0.85594351742924    1.31994188328557
H          -1.24909173210123    2.01966360043475    0.82035315996396
H          -1.71007751798729    0.60728637233558    1.33230102726246
N           2.27371730106991   -2.00661885434848    0.94834596938821
H           2.97541694634980   -2.73386859509910    1.04114743033513
H           1.35553362381710   -2.37258209983700    0.58866787186959
H           2.10437410250709   -1.52829356129654    1.83134609901173
