    26
        -50.46489353  Gyration_radius:  2.55404120941 Dipole_moment: 4.639
 S           0.71647666987282   -0.33664181165628    0.23628664952084
O           1.20190461255696   -1.26815153018186    1.34712824818237
O           1.84755300218376    0.00424665852708   -0.60285292394188
O          -0.33791595522933   -1.00530485603897   -0.52652917613249
O           0.18112215819542    0.89101755503523    0.86797757389479
O          -2.47364621215118   -1.71541873062314    0.84745206076486
H          -1.73531151396528   -1.40643492996872    0.27753656951902
H          -2.74988566174000   -2.56074137745974    0.48952379850075
O           1.84025109740601   -0.25806244686123   -3.22713802345525
H           1.94190230714182   -0.20161422746687   -2.24967566303742
H           2.14943792600217   -1.13136142657598   -3.47148607815985
O          -0.55058274116850    0.96675424291241    3.43762037631617
H          -0.34427110541154    1.03781954472781    2.48342042984250
H           0.25982905181798    1.18028923073473    3.90320374074828
O          -0.68629061733322    0.42134307971198   -2.70901521571318
H           0.11745824887306    0.13580855897520   -3.19322474222217
H          -0.73376192395886   -0.20187877308341   -1.94734911568984
H          -0.13654525455889    1.59547519362508   -1.97309526396328
O          -0.75271968764613   -1.65571080352645    2.88909208748612
H          -1.51221625038796   -1.73256252134650    2.26958121631539
H           0.41849719174453   -1.48099757840120    1.99217329792303
H          -0.82740455818401   -0.76175531361482    3.28534592967635
N           0.40767822470216    2.26248999456068   -1.28656269009758
H           1.40073053993058    2.18306939811752   -1.50059794306044
H           0.27078591275056    1.81339712065708   -0.31468152788031
H           0.08692454856059    3.22492574922457   -1.32413361533775
