    26
        -50.46318590  Gyration_radius:  2.50857478746 Dipole_moment: 7.451
 S          -0.23692390397319   -0.57920169785937    1.98960781290380
O           0.19092716585736   -1.80543287129124    1.29682847102203
O           0.90333175295328    0.29916096328607    2.19853651616322
O          -1.36264532520092    0.04308418170377    1.35167861861997
O          -0.70773361787987   -1.04233245699428    3.42574192383809
H           0.11350659297914   -1.29572043180080    3.83372551178861
O           2.12329328356134    1.31535210992594    0.18464640216687
H           1.61676625805905    0.98608745389398    0.98211578175531
H           2.93456886317191    1.68653247985046    0.53621817640652
O          -0.92694609899683   -0.75845253260422   -2.22529526128108
H          -1.44161161529812   -1.41013921274505   -1.69687703237486
H           0.36918550987144   -0.88566190410711   -1.59468606850024
O          -2.02046600677894   -2.16673685266624   -0.22589189171240
H          -2.55292197964100   -1.46390386378159    0.16054792814718
H          -1.24363966875120   -2.22082911412784    0.35783824083972
O           0.41311865759697    3.11815273788168   -1.00743137436163
H           1.03681978996510    2.52996799970860   -0.54543114988741
H           0.75091992743179    3.24705112602327   -1.89504788906976
O          -1.72985283765367    1.39644204432069   -0.98709721918465
H          -1.09315883977359    2.13285609467952   -0.97468577577001
H          -1.27570668306249    0.11999689995774   -1.90913374476343
H          -1.71531654201584    1.02126691785113   -0.09060791281925
N           1.27712410760431   -1.03285936310529   -0.96361333546127
H           1.92689294269330   -1.67608628909328   -1.40213373218329
H           0.92014681517314   -1.42756894957570   -0.05019450020158
H           1.73032145228203   -0.13102545926412   -0.74935849603870
