    26
        -50.45780419  Gyration_radius:  2.43632099199 Dipole_moment: 5.295
 S           0.04621298099357    1.02215205787506    1.31021696716619
O           0.84943222624595   -0.20321224901859    1.20305085051596
O          -0.24964671754706    1.51487570169230   -0.04871089638396
O          -1.15167493458195    0.81207647984965    2.08258112018337
O           0.91937381708647    2.08799669118992    2.00986265534299
H           1.67995388168894    2.18183863087254    1.36651029060287
O          -0.60775389317002   -2.40661025216934    1.20260389820667
H          -0.03082988155446   -1.61025668805418    1.24325871485677
H          -0.59428623438509   -2.78372985926602    2.08382224296560
O           1.55622437633310   -1.07481760954889   -1.14992132430242
H           1.73831749217432   -1.99488234364954   -0.94488337502097
H           1.30799314960151   -0.66608897407387   -0.28437032236368
O          -0.63652406258762   -1.08640441702750   -2.61853969944146
H          -0.40842456428441   -0.68850690482210   -3.46027846546800
H           0.19656077948817   -1.09707665691261   -2.07718127886770
O          -2.76046857521532   -0.87188968805781    0.87513046540197
H          -2.36220203931575   -0.20559770326862    1.48272348188477
H          -2.12165942510666   -1.62124953939674    0.90626477960171
O          -2.15466975583327    0.38278022217976   -1.17862375707508
H          -1.64351827351274   -0.25063526143844   -1.79600807580661
H          -2.53500266247314   -0.20030897198431   -0.35493089975348
H          -1.40546454729960    0.95624068145157   -0.72704817351721
N           2.53986837163759    2.01541456148609   -0.02962361298621
H           3.11407406712483    2.73297218079190   -0.45279093604250
H           1.67993685318265    1.92079190215719   -0.56197042869661
H           3.03417756131023    1.13412801913755   -0.08114423100503
