    26
        -50.46318580  Gyration_radius:  2.50858305096 Dipole_moment: 7.449
 S           0.86229264592301   -0.61896748782324    1.79599842397297
O           1.33179078343305    0.76467247778311    1.61802840685173
O          -0.51745622483270   -0.62212247011006    2.25599360516492
O           1.10884532562156   -1.43158521890086    0.63829672115104
O           1.72481760299845   -1.21347614655201    2.97978773331172
H           1.39317076795031   -0.73172755956875    3.73010607316037
O          -2.37260331594773    0.29795627603903    0.74315847957563
H          -3.14631852379128    0.37679554586174    1.30413432666785
H          -1.67341386089040   -0.12955373639930    1.31698464648609
O           0.85421642241459    0.92903771803999   -2.18878579500757
H           1.74792493975534    0.83075243631176   -1.78821109986633
H           0.13831884925324    1.51264723232695   -1.07510619509941
O           2.89703330294558    0.35309543619640   -0.55448741418521
H           2.48234776156678    0.59829421409782    0.29104198963620
H           2.82494430608050   -0.60656879645192   -0.57915938376188
O          -2.63578680432155   -1.41331680035203   -1.40103455943376
H          -3.08659752711107   -0.90831844534669   -2.07950407819486
H          -2.58448011860011   -0.84821012328842   -0.60954635536165
O           0.06801919655384   -1.54223372428775   -1.87987643490410
H           0.52104639889356   -0.00896997333926   -2.23889113021354
H           0.45275849651225   -1.67183937658052   -0.99682373854095
H          -0.89156482217629   -1.66421058559077   -1.76972813771676
N          -0.29474196342628    1.87802562214081   -0.11414850532680
H          -0.35414588688614    2.89020457595615   -0.10116733809099
H           0.36417594689452    1.53280077269359    0.63700273968280
H          -1.21459370872081    1.44681815700067    0.06593700013796
