    26
        -50.46489348  Gyration_radius:  2.55410063366 Dipole_moment: 4.638
 S           0.76573228892898    0.28163736335724    0.12513661524468
O           0.31841066456471   -1.10174419160056    0.28896320826529
O          -0.40401351613152    1.18870347544708    0.08382355692634
O           1.62951981620021    0.67642164832588    1.32323692435716
O           1.55123252586759    0.44901544178248   -1.08098248282827
O          -1.11014691757713   -1.60110551792324    2.44848104710072
H          -0.64708834759695   -1.45303449294861    1.59461421787470
H          -0.83601790259505   -2.46791168139606    2.75282466474823
O           1.84084598632232   -1.44068446768569   -2.89768079451759
H           2.60193765003809   -1.98397382188069   -2.68888214742241
H           1.83765968291129   -0.71662371864382   -2.23091912475377
O          -1.19324752967125    2.58976938980419    2.21870772715323
H          -0.67252725607581    3.39360676207664    2.17401498623359
H          -1.00991793313842    2.09914719546374    1.39175584909067
O          -0.65270132271088   -1.84242937826623   -2.04095248879314
H          -0.38258384911033   -1.73599163977257   -1.09941881881795
H          -0.90385373902870   -0.40388501395182   -2.34122588463879
H           0.19758450195399   -1.96645941619152   -2.51392630857693
O           0.15433359361432    0.56632791258731    3.36286664673969
H           1.06930236368538    0.61554333767661    2.19358787774061
H          -0.43541012277143    1.32784662706707    3.17841325031541
H          -0.39166236343921   -0.23468483027703    3.19903106175781
N          -0.87074807760630    0.69561073691379   -2.38874281117432
H          -1.67589089240735    1.10135155618901   -2.85528953426413
H           0.00417651803025    0.95948245893802   -2.83946468932264
H          -0.78492582225654    1.00406426490714   -1.35797255843326
