    26
        -50.45780489  Gyration_radius:  2.43651928598 Dipole_moment: 5.307
 S           1.32196233306187    0.88031405970940   -0.48468375614915
O           0.59857793258998    1.19172450390249    0.76291309036196
O           1.12371978998682   -0.54019625302158   -0.80285582379536
O           0.91826085924200    1.73452930802897   -1.57233695476783
O           2.82870855899243    1.08735644948735   -0.21110877159780
H           2.97515981884434    0.49433403941564    0.58139691598826
O          -0.92337226253035   -0.96564348662644   -2.41786601308454
H          -0.12931971263306   -0.84194994137776   -1.84973390562184
H          -0.59091756807539   -1.07193558968076   -3.31072657743763
O          -1.66461070890875    1.55650689947867   -1.99402153358533
H          -0.71538516990330    1.82250090284713   -2.00113454034440
H          -1.63537865208240    0.59888403620260   -2.22448127656241
O          -2.48976061586376   -0.73696591272064    1.29660984747609
H          -1.65450665449065   -1.24609851798268    1.12286700525938
H          -2.64365249647757   -0.78183240703975    2.24169737974331
O          -0.24492432902067   -2.04367073620871    0.82696626223659
H           0.31120589480513   -1.43967074150600    0.27543052794577
H          -0.47830195092356   -2.76770058569155    0.24138095222958
O          -1.83960319384466    1.59765978773529    0.48073119517334
H          -2.20691117506200    0.69471473887443    0.78584466277068
H          -0.81098888441174    1.52522254327766    0.65439097540486
H          -1.89614240558254    1.62626257989445   -0.59667391440348
N           2.60964465717990   -0.47077245704829    1.86629958592536
H           1.71263611509433   -0.00624852392784    1.97369044645303
H           3.09293816810659   -0.46686503046010    2.75517807467736
H           2.43096165190271   -1.43045967554212    1.60022613570156
