    26
        -50.45780485  Gyration_radius:  2.43646629844 Dipole_moment: 5.302
 S           0.71160069538615    1.02402866703954   -1.09710414526935
O          -0.39689622629908    1.46694757633306   -0.23009750265769
O           1.41524157572482   -0.08258564187268   -0.43479769868409
O           0.25595386404142    0.65752993169787   -2.41385303122508
O           1.70669576713902    2.20042357773983   -1.21530343504941
H           1.90695612228474    2.39499077232380   -0.25453454101941
O           0.66239195828395   -0.84876829287634    1.93925256665746
H           0.93930808099959   -0.47918385781721    1.06461670424048
H           1.04127536232011   -1.73046432390148    1.96573200256874
O           0.51031570304515   -2.46102622045937   -1.14449276253296
H           1.09465573698733   -2.82337934711135   -1.81249347173079
H           0.90103693677367   -1.59471284417397   -0.88871305866979
O          -1.55850994705887   -1.23205486294276   -2.28434874068490
H          -0.95112232708516   -1.88912701057587   -1.87156662482086
H          -0.95138992779107   -0.51442966751831   -2.58154821644984
O          -1.95118120866229   -1.18669684465230    1.79120946457739
H          -2.32839375149429   -0.77378671448159    2.56972071168162
H          -0.96662705612076   -1.07337514070519    1.86136905288231
O          -2.45413427784725    0.07521747163541   -0.37526651176569
H          -2.19368615864299   -0.54734963009818   -1.21794424574662
H          -2.34791416374650   -0.48823971978047    0.47000592965232
H          -1.65604980402226    0.74923611515551   -0.33315763491987
N           1.75744366303766    2.34584202244346    1.38632454251788
H           1.87356980146219    3.13612086477413    2.00734592320043
H           2.21165864391445    1.54151865776890    1.79914934344426
H           0.76780092736126    2.13332447205920    1.30049537980191
