    26
        -50.45793247  Gyration_radius:  2.4601239018 Dipole_moment: 5.058
 S           0.20517597060619    0.39540938110090   -0.91257346093111
O           0.22357968552196    0.74164472525477    0.52884364752039
O           1.49676506567498    0.60423742877317   -1.51348069692071
O          -0.35772647553975   -0.92472712821745   -1.11373716515116
O          -0.83350420619173    1.38994369322405   -1.54452626955577
H          -0.35856016984934    2.27268264155785   -1.50230186010157
O           1.60880284127579   -1.36137397731498    1.56289179264924
H           1.28570497477547   -0.48563200658407    1.29305590585948
H           1.97759566372615   -1.75114767458018    0.74110752546134
O           2.20149134403459   -1.97881873946730   -0.98504856883231
H           1.31001586196158   -2.25501917617534   -1.22537918981184
H           2.24876289386935   -1.05718744173063   -1.28581185683540
O          -2.86799240426452   -0.52286259794245   -0.62997043504697
H          -1.98743424964302   -0.83752172004892   -0.95276517260939
H          -3.00928009582898    0.31373220680520   -1.08168690816178
O          -0.66897192740252   -2.31996866103499    2.32530672092303
H          -0.59555880312533   -2.47429187798252    3.26915761315844
H           0.25402936417121   -2.06900985380395    2.01004031509590
O          -1.79425169354635   -0.17611311630898    1.64089132830585
H          -1.42178106188449   -1.10538960695305    1.95851357200518
H          -0.93952952398987    0.29218176299194    1.22830539726126
H          -2.38107601004735   -0.35141807924272    0.81154292373750
N           0.85505952249416    3.33398408799944   -1.21564322215032
H           0.90891074922970    3.63018971874598   -0.24971909142392
H           1.11193335298971    4.11415462542866   -1.80673339270318
H           1.52783932099066    2.58232137549027   -1.35027944174723
