    26
        -50.45793233  Gyration_radius:  2.45990323785 Dipole_moment: 5.060
 S           0.44404499879283    0.23835737998426    0.88340238805522
O           1.79199388554047   -0.05072225410830    1.29847533457549
O           0.40023878900765    0.65327149083559   -0.53933766930186
O          -0.51499362639437   -0.81789628534798    1.13742735665279
O          -0.09209712906522    1.48478534624372    1.67480464193640
H           0.65214627620355    2.15094699566798    1.58037225157963
O           1.47583296419589   -2.67715046248704    0.62735435045629
H           0.58218584336950   -2.64663265940457    0.98678616876248
H           1.87929949524107   -1.84992328668217    0.93565284742334
O           0.82057436815992   -1.72297546292477   -1.79857655950822
H           1.12987306902118   -2.27034791751350   -1.04492945028144
H           0.86074387826628   -0.80986300246216   -1.46872492690484
O          -1.72498920658910   -1.78564222720894   -2.25053193151816
H          -1.82914892457955   -1.89150443368299   -3.19813986944319
H          -0.74073755922413   -1.88949347375214   -2.06375934048529
O          -2.76630483831629    0.45294781830361    1.02013864515400
H          -2.01797023625561   -0.16582050402421    1.20911613330670
H          -2.54872382931525    1.25462630006663    1.50376122963245
O          -1.93372312631980    0.56321081621039   -1.37270606673838
H          -2.43550635221686    0.54441148661840   -0.47244537471651
H          -0.92446169787482    0.68004874593325   -1.07601527181619
H          -1.95290247987625   -0.41377457700569   -1.75761390600918
N           2.11245118165004    2.74680817278149    1.13990660694669
H           2.49203909526323    1.80289861416272    1.16509162494808
H           2.69957671763924    3.35174497010972    1.69970609070783
H           2.14055846364016    3.06768840976333    0.18078471662125
