    26
        -50.45793249  Gyration_radius:  2.46022296199 Dipole_moment: 5.061
 S           0.18208960549061    0.41189831301836   -0.91070959535828
O           0.29854743930355    0.70775310962889    0.53739636084220
O           1.45111159551811    0.55962443754434   -1.57445454523732
O          -0.47464778250152   -0.86281370536165   -1.12043667886639
O          -0.82226822973743    1.49025941234258   -1.45460691684208
H          -0.28950025841703    2.33927203652298   -1.41202700326473
O           1.59754994270297   -1.51131540526276    1.43003137432695
H           1.89639811466778   -1.89604851241149    0.57802589721004
H           1.31756795342798   -0.60858514121581    1.20445061241187
O           2.01385599595258   -2.07934939325022   -1.16392473225809
H           2.10600256776201   -1.15311361177669   -1.43889102532425
H           1.09459939788695   -2.28942970523412   -1.36302124748935
O          -2.92512986149586   -0.32232865724676   -0.48696948033624
H          -3.03691487511620    0.53573698611672   -0.90548099644839
H          -2.08486979529457   -0.68013360729793   -0.86695330955780
O          -0.69334993310214   -2.34880186372660    2.28921684947166
H           0.22580369066843   -2.14657416305305    1.93055241384819
H          -0.57972601526021   -2.53727060572257    3.22281090804409
O          -1.71269503102164   -0.11721201401912    1.73095615598523
H          -2.35254811990774   -0.22841264234571    0.93047622527912
H          -1.38450016618847   -1.07799987197319    2.00006273648704
H          -0.85261773182327    0.30986496863835    1.28604573495472
N           1.00299774144261    3.31263687278842   -1.15965563523222
H           1.27811502440550    4.09438911578329   -1.74032123769631
H           1.61819666691849    2.52531418223873   -1.35291412240034
H           1.12593206370092    3.57263945533199   -0.18965873256527
