    26
        -50.46564193  Gyration_radius:  2.42025404348 Dipole_moment: 2.439
 S           0.48670936311943    0.78618014558468    0.90905759056551
O           1.19536591403984    0.44807002576996   -0.33676823672046
O          -0.65721433328687    1.63726036996160    0.62898128718464
O           0.10788412925177   -0.42845175385891    1.62139257239501
O           1.48688024848948    1.54700667570934    1.80878007749955
H           1.65568607018933    2.37507224790876    1.27304116274713
O          -2.01107630726825   -1.75855570111425    0.86550359821975
H          -2.45798059619336   -2.13395106997665    1.62545543013819
H          -1.24158335349949   -1.24997690417799    1.22304327206358
O           1.73509885172612   -2.20731178451598    0.47283010345017
H           2.25986077574455   -1.58818812744834   -0.04304916178313
H           1.21011020304331   -1.63888813694474    1.06967110963976
O          -0.35025684649569   -2.84098717783191   -1.02176920213728
H           0.48939608906936   -2.80325354184336   -0.49632902898367
H          -1.06419727218413   -2.69918977492608   -0.37313030909421
O          -2.34822696955669    0.32783533578148   -0.88765645905413
H          -2.56441942796951   -0.42294187264671   -0.30889194481293
H          -1.84809204688572    0.95536213859991   -0.31354747504256
O          -0.31330120282631   -0.56927260294127   -2.05896140119909
H           0.37709301482215   -0.11415147081081   -1.43231926436313
H          -0.32214276334170   -1.59029679070199   -1.74095530359239
H          -1.22854856332060   -0.18002104539999   -1.72954678449587
N           1.45553179437582    3.43778524124345    0.03164788823482
H           0.46574897618805    3.21612585572361   -0.02664780207894
H           1.90794651147634    3.05190716850697   -0.78707642657208
H           1.57372773134250    4.44283252036610    0.02724469781613
