    26
        -50.46564191  Gyration_radius:  2.42008961815 Dipole_moment: 2.434
 S           1.11357225857350    0.64595269363441    0.15866294260580
O          -0.02687235695764    1.16944828484075   -0.61202460718699
O           0.79965059191853    0.61880544869513    1.57712824704378
O           1.50445807248587   -0.66587183846775   -0.34389022422323
O           2.30446782028849    1.59987513206009   -0.08726085211204
H           1.97312744947202    2.45102485274514    0.32128088805191
O           0.14542774449442   -2.77944195689395    0.37518569791855
H           0.72856568089141   -3.53326487110734    0.47462368955669
H           0.72401961630194   -2.01487790880998    0.13184636703578
O          -1.58542715508400   -2.03234381638944   -1.60931893746402
H          -1.05960616980233   -2.54768572288064   -0.97019210052874
H          -0.92102187156938   -1.61131512762837   -2.21254524154492
O           0.34971718033653   -0.64143147516522   -2.75148359900197
H           0.06194980864569    0.27620714754375   -2.74749942974276
H           0.93968050519762   -0.71205840763209   -1.97561911916457
O          -1.21349929341347   -1.01208798303929    1.97837115877853
H          -0.45141787747543   -0.38664607640345    2.01865894442156
H          -0.83491096055020   -1.84751689473096    1.65571547146793
O          -2.15117245631417   -0.07939970771245   -0.15897348097205
H          -1.33709403732331    0.52636891443051   -0.37481524679040
H          -2.03857566397630   -0.91382296897028   -0.81837371828842
H          -1.92260171259153   -0.45813096011183    0.79087669878097
N           0.93746024593706    3.42352759457821    1.15356149117447
H           1.14150983802629    4.23557039384651    1.72186521256389
H           0.66349125627930    2.65272298749347    1.75597301488567
H           0.15510152620049    3.63639227608439    0.54824672273121
