    26
        -50.46489361  Gyration_radius:  2.55398730258 Dipole_moment: 4.637
 S           0.34355876093356    0.74596289136201    0.08419236186005
O           0.32684739577104    1.26752491742347    1.43600275859901
O          -1.00812238703392    0.47132494832894   -0.40391930878568
O           1.00635751768620    1.78092306794989   -0.82519932187195
O           1.15673442194273   -0.49082437756798    0.04095454224474
O           2.88888044177451   -0.98552135941406   -1.93363894610873
H           2.26201863735078   -0.91850512774248   -1.18486090045289
H           3.69782951433247   -0.55996705265410   -1.64431152896178
O          -1.17151884741857   -0.47207813900141   -2.86085941940726
H          -1.94934859523389   -0.06767360570705   -3.24880106849605
H          -1.16096043256295   -0.19393414117493   -1.91855398140415
O          -1.85011189376661    1.38452615223080    2.92011675798687
H          -2.29877521269074    2.21949051864426    2.78042074606179
H          -1.01472181741473    1.43934288971633    2.40237632553289
O           1.19646591013461    0.73767408624164   -3.11083333263337
H           0.34946406994854    0.24699993150922   -3.20222091950220
H           1.07772554960203    1.40488088969849   -1.78881504633149
H           1.87533623084839    0.05560065521256   -2.92208849709141
O          -2.22908026425123   -0.85025981407062    1.51497498012354
H          -1.93193478540371   -0.41704888367597    0.68141053230346
H          -0.89029547438937   -1.29032970185130    2.00035689617753
H          -2.38937767348452   -0.09791862797835    2.12358668467838
N           0.18087719279461   -1.37245291557579    2.24217999465900
H           0.44332377417741   -2.28740491227347    2.59514738363691
H           0.40687591380903   -0.62990738939505    2.90233469223302
H           0.68195206254450   -1.12042487023077    1.32004761494737
