    26
        -50.46489350  Gyration_radius:  2.55414105853 Dipole_moment: 4.639
 S          -0.26884709544611   -0.73674481248137    0.25799487224928
O           0.20490101128812    0.29988553411368    1.20336590378190
O          -1.56891668453340   -1.32249671798845    0.80957572264317
O          -0.52818254232129   -0.13670731339651   -1.05097501875111
O           0.71261493602858   -1.79936603410631    0.17277346050347
O          -1.41736085153614    1.43942329360128    2.99596468863657
H          -1.38009379207158    0.84926574331625    3.75066593628000
H          -0.75008732228741    1.11134998175943    2.35936419240222
O          -2.30812997658820    1.80847335830541   -1.08971529059803
H          -2.80266879378360    1.69904084374085   -1.90366948934200
H          -1.58646770996117    1.14226579957283   -1.11755700172338
O           2.08511535756965   -2.33749031037732   -2.01392168878398
H           1.61189442550011   -2.97418602975224   -2.55117108326716
H           1.56022076576412   -2.24242052088299   -1.18664693185183
O          -3.16358221410362    0.60120786425607    1.13363139839376
H          -2.26899685431845   -0.56736043448879    0.93058166471496
H          -2.72095869680936    1.05540629116258    1.88163892887758
H          -2.99386161780918    1.16502979537097    0.34628450221823
O           1.82625192181424    0.31440817494456   -2.13408840292021
H           0.87544591142491    0.26770920712674   -1.87999375183730
H           2.39954110355866    0.35298622813701   -0.75840248413525
H           2.04641592806085   -0.60882094723023   -2.38143746847408
N           2.60769801088662    0.20815509146092    0.31302040193445
H           1.64909629093050    0.34174618805798    0.79083382558202
H           3.31769169446571    0.83851411376620    0.67238298894138
H           2.86126678428863   -0.76927440798799    0.44950013452688
