    26
        -50.46564191  Gyration_radius:  2.42022832496 Dipole_moment: 2.437
 S           1.08224874303458   -0.00557614109003    0.71440281112857
O           1.78860115935534   -0.04350809441699   -0.55482854897839
O           0.10516909926898    1.09612269909046    0.72826593097684
O           0.42272569323049   -1.27075077113740    1.01541597717367
O           2.08832895200874    0.26498443663182    1.85604325547925
H           2.52177574576990    1.11350929737635    1.55056018612031
O          -1.83876771758604   -0.39863777443886    2.13668449211818
H          -1.61023704480864    0.53449048384452    2.17966100154393
H          -1.00187935265308   -0.84044745760208    1.89299604395864
O           0.06976050488454   -0.51451882219033   -2.47780769436519
H           0.84771145557924   -0.35196959162280   -1.89306871436701
H          -0.27109232524542   -1.38336329220401   -2.20524876434268
O          -0.89623054199012   -2.51666413109205   -0.86566385630422
H          -0.35403010013932   -2.11044989341307   -0.14479628093278
H          -0.80128026717999   -3.46508310866796   -0.76758013130748
O          -2.92514951305179   -0.78946524479860   -0.24065636199837
H          -2.71350441788073   -0.67917018076429    0.72136880713119
H          -2.41251181735355   -1.56763078517005   -0.52752350702512
O          -1.48080097592356    1.00325710633996   -1.20901386762238
H          -0.84401307919697    1.15367237596283   -0.40383054076710
H          -0.89349032619224    0.45191219456066   -1.87888489664444
H          -2.20411061598800    0.30517104485505   -0.84389341671973
N           2.84352838749442    2.36116209181177    0.52565858127391
H           2.71907379269066    1.75780846383967   -0.28221018080202
H           3.69730840722013    2.89342381157580    0.41686267598133
H           2.06086616459827    3.00172127246212    0.55708700931400
