    26
        -50.46460250  Gyration_radius:  2.41081444569 Dipole_moment: 2.672
 S           0.96119052621996    0.95890920318816    0.32950596186755
O           1.35922547759099    0.92160505141258   -1.08374757928136
O          -0.50025278703336    1.06743716265484    0.42749139998407
O           1.45486424574234   -0.19057740068371    1.06133047386212
O           1.57292819694884    2.22698670885840    0.96739708322041
H           1.18703609638459    2.95310868321449    0.39934410932303
O          -1.41784900514961   -2.54213477432073    0.90424691871398
H          -1.24016464205612   -1.83089985636907    1.58276613923268
H          -1.99285849561833   -3.18262169554966    1.32433921419395
O          -1.72257859472153   -0.71010331052439   -1.09694315749832
H          -1.40001725918749    0.05022037457836   -0.55928817922731
H          -1.82617742033622   -1.44209405470072   -0.45948619897524
O           0.52110908755555   -1.18843444948905   -2.11209671900732
H           0.95971668492426   -0.29263534661613   -1.80495095948268
H          -0.48686055133444   -1.03554112861882   -1.85880038835338
O          -0.81560025519309   -0.55917150197309    2.50480828215875
H           0.14306631389077   -0.64275258095421    2.58728759170544
H          -0.91098952975064    0.16385449528524    1.85376765780130
O           1.13040882788860   -2.54194393116276   -0.09604935007003
H           0.25727718551486   -2.77098404768880    0.27500243886656
H           0.85142763545394   -1.87716691946004   -1.38279480153379
H           1.42800698701612   -1.75613683851896    0.41632835123669
N           0.28104622060487    3.56890355436403   -0.83493628266862
H          -0.63256154324670    3.21591314056709   -0.57650069217670
H           0.65831604674683    2.94153815753270   -1.53688313821789
H           0.18029055119889    4.49472127491876   -1.23113818565473
