    26
        -50.46460249  Gyration_radius:  2.41077188354 Dipole_moment: 2.669
 S          -0.07080515474479    1.32639352707924    0.43481610250691
O           0.74011436769520    0.23301246704964    0.98635043199916
O           0.43886928386391    1.69762018236506   -0.89157258089951
O          -1.47575520269709    0.97279117205477    0.39501779423028
O           0.08567504305758    2.54829217943530    1.36858402858486
H           1.06929899726219    2.71917393237493    1.32493634523076
O          -1.25151387843696   -1.12853374742569    2.10063959478757
H          -1.86945595195382   -0.42699652947596    1.85820839282905
H          -0.38342596110457   -0.72488669744089    1.90280146887434
O           1.05332094333179   -1.73146810551623   -0.75197042133853
H           0.29431325694744   -2.29673364444596   -0.51290400876272
H           1.08844146226449   -1.04305692437836   -0.04769971245220
O           0.06422735629917   -0.19405681140641   -2.47010048041173
H           0.57560814854686   -0.91109631204539   -1.89772414980783
H           0.24729725790933    0.68207324369168   -1.93291629638666
O          -1.36825028307362   -2.72340854092431    0.02689227227497
H          -1.36103021630844   -2.18800761794311    0.87004612347668
H          -1.69810948721888   -3.59242871826802    0.25783560581412
O          -2.21842773592876   -0.65268787418211   -1.54941409300641
H          -0.95063050877671   -0.39470061478875   -2.25849804421406
H          -2.09144304449433   -1.50335328572308   -1.08822752967967
H          -2.13929783211817    0.03285540828358   -0.84776864855829
N           2.61668213048735    2.44771112958611    0.81856689002133
H           2.73709187221665    1.49346654190949    1.13652152525509
H           3.48794332564413    2.94957858962167    0.93424061522915
H           2.37926179130422    2.40844703050597   -0.16666119559419
