    26
        -50.46460239  Gyration_radius:  2.41110454053 Dipole_moment: 2.668
 S           0.51705286918566    1.19913662022809    0.49484283072562
O           1.20263389442936   -0.09118295013804    0.34740881446733
O           0.23925665658909    1.76445034230899   -0.83213574175194
O          -0.68771522145922    1.06864379286031    1.29008384940416
O           1.47369864442795    2.16104387202065    1.23566753388018
H           2.25671446648160    2.19430367638269    0.61532733043047
O          -0.03852232428936   -1.35439745933335    2.32869892362432
H          -0.49007985982627   -0.53466159951350    2.56765958083896
H           0.62380559631014   -1.04973237089487    1.67741664268684
O          -0.03050143320282   -1.66929844453844   -1.37496711587026
H          -0.62136303193797   -2.15726676310916   -0.77051324882458
H           0.56966174296105   -1.15714392043550   -0.78446176343307
O          -1.42132347349435    0.32189851058677   -2.00376293976121
H          -0.75672588736571    1.02936662795836   -1.61994770255711
H          -0.86570996257993   -0.56560933773587   -1.92164718180270
O          -1.71165701648013   -2.44264224178326    0.63365170666898
H          -1.08983960291913   -2.10384237633889    1.33817602533983
H          -2.04959756669827   -3.28183928192802    0.94816631236483
O          -2.78177126708510    0.01377641924615    0.07514821765398
H          -2.62201170616413   -0.92421055479266    0.29266007508875
H          -2.14958373517585    0.51766696145755    0.63640754952754
H          -2.13952856576035    0.22944166227670   -1.23490091709901
N           3.10494790909128    1.82300464363638   -0.75043051978069
H           3.96010611282782    2.18133272258391   -1.15610401523015
H           2.33028640236372    2.01044038957750   -1.37780478155110
H           3.17776636976871    0.81732106941181   -0.65463944504116
