    26
        -50.45568749  Gyration_radius:  2.56730378424 Dipole_moment: 1.956
 S          -0.06302930955754    0.45273420419323    0.89856601106051
O           1.31190246991895   -0.00833082724483    0.84628211700657
O          -0.53177330516773    0.80883378940300   -0.46462138593406
O          -0.95321565110018   -0.52001027026899    1.50446949416391
O          -0.14398560271285    1.74163666769993    1.74050961432633
H           0.22094992419342    2.44997037374150    1.12294767761733
O          -3.30733003715191   -1.15399826587204    0.64499839066196
H          -3.93080886343620   -0.49545860038518    0.95677340858475
H          -2.44864523624106   -0.96643917187160    1.10623897809924
O           0.68710734068161   -2.55318195577328    0.56584538207471
H           0.00715550423936   -2.57404250287304    1.24619032125376
H           1.07322335910307   -1.65511974862308    0.64913385133393
O          -0.49155301300189   -2.70327425559005   -1.75662347214433
H          -0.03762249125047   -2.72922016267779   -0.86652888196713
H           0.20203897197352   -2.58975666831526   -2.40873891877720
O           0.77014648656575    3.19311093213327   -0.14354022873877
H           1.72407315735134    2.91883805954488   -0.14714265142086
H           0.31534883210229    2.57037304334898   -0.72600635051297
O          -2.09351286313958   -0.75365810862373   -1.54761918367948
H          -2.71513939161953   -0.97958532357717   -0.76366093706592
H          -1.42322235039796   -0.02852049588380   -1.12412936068815
H          -1.49899742862740   -1.58649423742952   -1.70058011634925
N           3.15981897856632    1.99444144434154    0.02160308054621
H           2.65336124328063    1.16690080500422    0.34144285156512
H           3.77924675579503    2.27984610114896    0.76950755063706
H           3.73446252963872    1.72040516444677   -0.76531722165859
