    26
        -50.46460251  Gyration_radius:  2.41067343463 Dipole_moment: 2.667
 S          -1.17001071932740    0.41452241664634    0.64306518187078
O          -1.74111070254481    0.59455639948686   -0.69794895716667
O          -0.50361144677391   -0.89187536066225    0.72398108303644
O          -0.26517295962323    1.49057348624336    0.99492962704583
O          -2.33097247080958    0.41687776906762    1.66366534036213
H          -2.89588006985982   -0.34049680000466    1.33831687997218
O           3.04544937676500    0.11237812807768    0.01893254187753
H           2.56907785771486    0.01137690753307    0.89097874899873
H           3.97669461185161   -0.02031558878644    0.19938532554889
O           0.10932542869001    0.75043472164570   -2.36004359654784
H          -0.75473093238137    0.73910520413830   -1.77458040721761
H           0.55783123052267   -0.16407626865027   -2.10395162790937
O           1.12392068966071   -1.29385298874145   -1.31782475431901
H           1.95757732440442   -0.94924832363335   -0.94503864409457
H           0.49489424233484   -1.31027844668334   -0.55944411316609
O           1.58026561276285   -0.11350793442134    2.17767891658488
H           1.19596169244114    0.76845294382684    2.26229319375748
H           0.84870346775031   -0.62745240107759    1.78211295766112
O           1.49048717289243    2.19142622258530   -0.84889956839348
H           0.84543475907032    2.13721608982859   -0.10754029892118
H           2.21859623817985    1.59275156669867   -0.59599634367071
H           0.71738934405425    1.46279707489449   -1.87208086412663
N          -3.29905110521268   -1.58403465766809    0.33046013470191
H          -4.11322883628347   -2.17914077640677    0.24526136277842
H          -2.47334392183160   -2.16166670970725    0.43416306936520
H          -3.18449586452787   -1.04652267418586   -0.52187518803634
