    26
        -50.46460244  Gyration_radius:  2.41110229584 Dipole_moment: 2.672
 S           1.13731784086261    0.25327947175801    0.76926513110926
O           1.85897486958557   -0.61838858915060   -0.16711841904741
O           0.31842433915854    1.21315360770450    0.01771453532548
O           0.33351922813676   -0.50677686179613    1.70568988288868
O           2.18065163878704    1.05532873824570    1.58009833783972
H           2.68382232736012    1.53100997004998    0.85935237842133
O           0.21671079351253   -2.04240694477204   -1.38662360910335
H           1.00982099858083   -1.54200982573668   -0.92843376534014
H          -0.35927519239151   -1.24534707431030   -1.75592755464273
O          -1.12974158367173    0.02430005596598   -1.84421078798881
H          -1.95066834895074   -0.14344391837030   -1.34351080946593
H          -0.58665156510392    0.59846139671156   -1.25545070539499
O          -2.99919787904721   -0.54487144239803    0.06293820846106
H          -2.62855406589847    0.14019399399678    0.68822247757993
H          -3.95297557993114   -0.47428558384713    0.11459833298698
O          -1.79564464659533    1.17611495765757    1.62739582708986
H          -1.09463697416157    1.44802716707799    1.00265903657601
H          -1.31910086550412    0.60110606328856    2.23994066620647
O          -1.13292090419121   -2.44960917471075    0.68221481309517
H          -0.35028721228660   -2.39052644146932   -0.56644928487966
H          -0.57691826672713   -1.85440288939037    1.23471199739633
H          -1.94774601252065   -1.94278172626364    0.50425005773495
N           3.04732252426971    1.93789543154083   -0.69795260824435
H           3.80974195702922    2.45055336574341   -1.12242575666791
H           2.16786969359597    2.34593830114820   -0.99116929164766
H           3.06014287610931    0.97948797136908   -1.02977909030089
