    26
        -50.46460245  Gyration_radius:  2.41064783804 Dipole_moment: 2.668
 S           1.32593098347163   -0.13709010649795   -0.42134527622607
O           0.93187272133819    0.61330874108047   -1.62074108433459
O           0.82027568695838    0.54638585362736    0.77633599429488
O           0.87588249068780   -1.51380904796743   -0.47235624715071
O           2.86983894080630   -0.14418578560451   -0.34503983429587
H           3.08155939993633    0.83214969456951   -0.32286727809053
O          -1.74016337099345    1.15759694307069    0.55191877876996
H          -0.77507386362183    1.06810688070427    0.72982895794830
H          -2.14324531921990    0.36199100416782    0.94850379684777
O          -1.54621815447424    0.51949795026427   -1.86676887144590
H          -1.76094851821842    0.90885467928045   -0.91531550227964
H          -0.50692186891556    0.60836857227412   -1.90732521430614
O           0.13784995323225   -1.63087520812630    2.13894044020669
H           0.44235675714345   -0.73727312313023    1.88511406061413
H           0.51589439880102   -2.18663762895668    1.44548181291589
O          -2.35126620361992   -1.37636344825551    1.36534576425592
H          -1.43600088062711   -1.52043016625435    1.73819130661613
H          -2.96576402363070   -1.75258645334005    1.99641854020167
O          -1.62670461560042   -1.89847008868524   -1.22258932178667
H          -0.66101212197712   -1.94409388436951   -1.03828322520394
H          -2.05137505994800   -1.86767073652540   -0.34442960320601
H          -1.69086674635556   -0.51898744089578   -1.74118409075099
N           2.72392766214772    2.44367473108186   -0.32902179040418
H           2.11593829939806    2.39573167233391   -1.13930695740554
H           3.28489903238984    3.28455484457581   -0.37945589016420
H           2.12933442089682    2.48825156157706    0.48995073436686
