    26
        -50.46489359  Gyration_radius:  2.55400833215 Dipole_moment: 4.637
 S           0.41091481020623    0.47334268809163    0.53748404815970
O           1.04044637141901    0.30680139960832    1.92074565331132
O          -1.04400700256305    0.22795885182018    0.66275755439359
O           0.63602898571845    1.83380893105637    0.09233178042663
O           1.00324635591462   -0.49902202992403   -0.38140245987927
O           0.70439594009523   -3.03403805501018    0.28020608987374
H           1.52397951260685   -3.46918101557385    0.03932140595329
H           0.77882508941780   -2.11119922649889   -0.04879736071677
O           1.69240434371197    2.44040978368820   -2.24674885247614
H           2.64616413192112    2.49387356126310   -2.17316141355357
H           1.36112656152600    2.29027095989210   -1.33209284117760
O          -2.08961246389605   -1.09405203011661    2.73719621221105
H          -2.22993577799828   -0.41414782015781    3.39845477559875
H          -1.80855341779493   -0.62929013561027    1.92285553701177
O           0.28613332788089    0.24312121609551   -2.80102742530592
H           0.61003976510102   -0.21043818164663   -1.98852585721896
H          -0.88591116910354    0.93340287107691   -2.19134202534836
H           0.89616306726589    1.00468579223617   -2.90090161030973
O           0.43903348540785   -2.00247904290961    2.72950669909196
H           0.51491652918960   -2.54957241058559    1.91619924992081
H           0.84413441378149   -0.64508749128402    2.28183420134262
H          -0.52315406839069   -1.87875759837798    2.87313773393513
N          -1.57880194188285    1.46349971253562   -1.51946108197946
H          -1.50187637344766    0.93102036211811   -0.58375682455695
H          -2.52955953091269    1.50209413965285   -1.87324299747931
H          -1.19654093516916    2.39297474857205   -1.35157019122873
