    26
        -50.46220840  Gyration_radius:  2.42218740802 Dipole_moment: 2.961
 S           1.06854480942481    0.64870803420000    0.12542477920475
O          -0.16075569542109    1.26910755166947   -0.38982881901782
O           0.80992527126135    0.01074228516289    1.40881947429801
O           1.61604548713415   -0.28908355918860   -0.84552483476925
O           2.11451867262946    1.76888927857589    0.32018886911634
H           1.73688661685162    2.29582447367061    1.08219838066375
O          -1.83301930756850   -0.00574396255249    1.45584586388307
H          -0.85917920915956   -0.06968391468715    1.56463115779328
H          -1.95888433258790    0.79724488280780    0.94108988250673
O          -1.97357999697000   -1.82878712262279   -0.44552523195239
H          -2.11213327298636   -1.25822558681569    0.35301669494202
H          -1.09578850753859   -2.26139269294694   -0.29431627091797
O           0.69470506907870   -1.14280709506828   -3.15214174451433
H           1.22880118048554   -0.77175970897038   -2.41518349935160
H           0.73951320816477   -2.09744251505050   -3.05517860540796
O           0.52943778533443   -2.53157524578821    0.04878344507175
H           1.03180565107401   -1.76020260224822   -0.28726033100199
H           0.64008621993698   -2.49000876612244    1.00198220105479
O          -1.38946190438246   -0.08916462937220   -2.10474621300139
H          -1.73711590550109   -0.89274905991611   -1.43424461734777
H          -0.90618648828808    0.56205592409762   -1.46061418218378
H          -0.64585963411743   -0.49663945495700   -2.67031131813953
N           0.79062561001674    2.68249437108444    2.37013067411737
H           1.14781757863842    3.11014630027300    3.21442031049347
H           0.59933166427081    1.70109586712177    2.54982399256681
H          -0.07608057980139    3.13895693764290    2.11851994189322
