    26
        -50.46220831  Gyration_radius:  2.42209239796 Dipole_moment: 2.961
 S           0.40437162546679    0.95942378394813    0.70447810457653
O           1.58433404804133    0.20712910694623    0.30122754209375
O          -0.48656914457454    1.16215464771190   -0.44743255288664
O          -0.30757493285320    0.30717199444448    1.79520332780991
O           0.84216857811953    2.35170454513022    1.21106019886063
H           1.42675131497299    2.68390788517780    0.47017460958790
O           0.33938267916561   -2.21132689858688    1.29863600235817
H           0.12811827071406   -1.30071603970056    1.59281308556195
H           1.27860916463218   -2.18478908900612    1.09937135168679
O           0.84131876855208   -0.68836735984833   -2.07247651163450
H           0.27042219788583    0.05268035427859   -2.29728262177704
H           1.23909121507368   -0.43113447352568   -1.21235730051468
O          -0.91555133109976   -2.35527683699323   -1.02678649331560
H          -0.48666288718267   -2.47915893968131   -0.14292337139048
H          -0.22629051410658   -1.90477520848355   -1.57843236814160
O          -2.73491100270757   -0.68526343274286    1.94170150548595
H          -2.57782101850703   -1.57477851723715    2.26853103862146
H          -1.89322953843092   -0.19605385494280    2.07691294520595
O          -2.41477455217916   -0.43739932222604   -0.58550660999754
H          -1.83692650747471   -1.34412804387756   -0.83031834893024
H          -2.71029542918158   -0.54552505831723    0.38392436206558
H          -1.69155581022023    0.30345184421113   -0.56102868185804
N           2.34916871912839    2.66855869882783   -0.89073949645230
H           1.82470316652771    2.82329830327991   -1.74151278267118
H           2.51682735342580    1.67163426049026   -0.79057052326281
H           3.23689558680731    3.14757765074801   -0.96666640104580
