    26
        -50.46220845  Gyration_radius:  2.42242469589 Dipole_moment: 2.965
 S           0.18929409153445    1.10675253151889   -0.56206267208921
O          -1.22352290006668    1.04639353518207   -0.21380293980057
O           1.01145528938446    0.66239009599295    0.57286219359713
O           0.48822978605321    0.32038199208545   -1.75128794574335
O           0.56996477109137    2.57123532187629   -0.87397836040434
H           0.21997286143502    3.06671495662354   -0.07838135859920
O           2.03179432843241   -1.77420707709258   -2.10993191920200
H           1.44223396266791   -2.39753566279873   -2.54190426544994
H           1.57953954708464   -0.90255550473588   -2.15134430842965
O          -1.14928792426672   -0.39585136668493    2.00056236356338
H          -0.28176291483423   -0.10276024297207    2.29572907224256
H          -1.32050197461456    0.13831479220612    1.19464276958843
O          -1.40808614448035   -1.51573203558559   -1.55148858487432
H          -2.19783576080795   -1.02236545986586   -1.31611217501677
H          -0.73736254285811   -0.82563839922925   -1.73676166934436
O          -0.50136039721403   -2.59134161660994    0.68963887788692
H          -0.86804190731176   -1.91858797349224    1.31842035409181
H          -0.89931397044080   -2.35756901819913   -0.18650986755380
O           1.79886996595668   -1.71629647332254    0.43853719020165
H           1.57696074462541   -0.70930364231119    0.53367951351416
H           0.82077966627099   -2.20381712645186    0.58827538180483
H           2.02770074955589   -1.84098640817139   -0.54660869344742
N          -0.62374814027852    3.37243254036354    1.29920047071670
H          -1.28652010548083    2.63410737097441    1.08083917023061
H          -1.12924157102249    4.23339504395206    1.46198552662117
H          -0.13020952041679    3.12242985673710    2.14580186588915
