    26
        -50.46220838  Gyration_radius:  2.42217287117 Dipole_moment: 2.964
 S          -0.81870483810205    0.91364775102493    0.27217099347941
O           0.09647400664780    0.81783870058100    1.40097871437853
O          -0.06889228542052    0.89385603488940   -0.99236555310739
O          -1.81779001154997   -0.14630550805636    0.29291562571672
O          -1.57578076122854    2.25805793606829    0.34890281014859
H          -0.83694156169458    2.92321199296935    0.46153096981795
O           2.33089783749057    0.08224982299558    0.19497661238024
H           1.57630104485645    0.34455230870544    0.76595063113315
H           2.16021557024723    0.53041629177819   -0.63906838268895
O           1.38890174261700   -2.32202472657937   -0.34398717506108
H           1.94807944316892   -1.53673349215298   -0.11361418589309
H           0.73446330857997   -2.38843864336195    0.39615474714635
O          -2.32093187999664   -2.09758425944180   -1.39167413673428
H          -2.35980073547610   -1.32184554925283   -0.78939910271148
H          -2.31252735335886   -2.87195748819054   -0.82332907368193
O          -0.43783737574479   -2.02510348476442    1.54761292218006
H          -0.00655594058262   -1.56476315952545    2.27193928282639
H          -1.03548243908880   -1.35440635802542    1.15598433952876
O           0.00459549453462   -1.33551025788449   -2.14145519574750
H          -0.93075949174437   -1.71397598678019   -1.99761983690701
H          -0.04008802020041   -0.36985912837054   -1.77002412293123
H           0.65662294641167   -1.85252276859348   -1.41772607492872
N           0.66420500605425    3.52468282913038    0.75796846193857
H           0.83243271607436    4.34407642424913    1.32680634703582
H           1.25470692896468    3.57356932191119   -0.06163555747338
H           0.91419665854566    2.69487138668051    1.28800593015294
