    26
        -50.45569481  Gyration_radius:  2.47216955947 Dipole_moment: 3.703
 S           0.41821248240257    0.65342594836748    0.87941743052160
O          -1.02096942908734    0.46206646229725    0.68815485611900
O           1.14771979655049   -0.54963537326135    0.47841881669481
O           0.90285803561047    1.80820531555684    0.13321186854370
O           0.67942692891291    0.92134518554464    2.37411611852743
H           0.01052818299433    0.33808312071327    2.84923162180088
O          -0.55049007451348    2.68815044276529   -1.78135743304294
H          -0.18104215460611    3.53917057609628   -2.02434705012079
H          -0.08580082067802    2.41159175206130   -0.94041538076764
O          -1.19197003963409   -0.63715332799642    3.14816235338048
H          -0.81269128048062   -1.51276815930344    2.87953195283312
H          -1.63356657629949   -0.30626955025107    2.35297800520013
O           2.21897507751156    0.24865877653003   -1.70224635599582
H           2.41323808694293    1.13547389790374   -1.37659723488418
H           1.89340569697348   -0.21704299082281   -0.88092215499960
O          -1.49999880339546   -0.82497832102695   -1.46967173448538
H          -1.30172876839628   -0.38490072819396   -0.59096460757641
H          -2.42805124141137   -0.65080391411973   -1.64295957144353
O           0.05448922616691    0.51800412771511   -2.92969553462589
H           1.01448144221826    0.35235265606684   -2.50039534900161
H          -0.58797479148248   -0.12129674000602   -2.41632023202742
H          -0.22178880797956    1.45444818503978   -2.59763588778026
N           0.02381024479693   -2.70692241962643    1.95166186298584
H          -0.49959803081451   -3.32129300016234    1.34034574492052
H           0.72685496481399   -3.26572321331062    2.41878136108826
H           0.51167065287621   -2.03218871855746    1.35951653413660
