    26
        -50.46407676  Gyration_radius:  2.3639391712 Dipole_moment: 3.032
 S           0.58624972165456    0.55365824563628    1.14367940174155
O           1.30371279255180    0.49180130893792   -0.13123321866363
O          -0.86524391108882    0.49982626581166    0.90809007468297
O           0.99450232247918   -0.51374368234070    2.03494463648285
O           0.89504044041985    1.91345883899294    1.80669974197588
H           0.63836805793936    2.55786936035821    1.08013051337688
O           2.14779666392830   -2.13046013093336    0.35114755466933
H           1.81626000946920   -1.59585552256455    1.11565890046663
H           2.52663849056812   -1.47086003268103   -0.23981849303466
O          -0.13540694628512   -0.62639900767135   -1.98710988190229
H          -0.95043727527325   -0.08486770319678   -1.96361915689361
H           0.48540697135826   -0.15118281605726   -1.37917954304017
O          -2.10619684044952    1.09542728334318   -1.30667018259468
H          -1.68535446975492    0.94597410405763   -0.42722374513346
H          -3.02677014387112    0.84858921403658   -1.20498570446522
O          -1.34241428046302   -1.98569227264294    1.44775069743598
H          -1.30265737923785   -1.00823721116244    1.29050641640208
H          -0.73770352918464   -2.12292157314873    2.18456104026246
O          -0.10619391768806   -2.72021284834915   -0.63476170735002
H          -0.20769793814207   -1.88974160184535   -1.29569292892838
H           0.86455583519963   -2.62400031490526   -0.27507053078236
H          -0.70167457377559   -2.51842941490372    0.19137185179696
N           0.25557269198436    3.12234116735044   -0.41077367966866
H           0.54009523654347    4.03429346934561   -0.74483038889569
H          -0.70691048155886    2.96625123329187   -0.68627961131331
H           0.82046244268004    2.41311362123190   -0.86729206662624
