    26
        -50.46460172  Gyration_radius:  2.41161600933 Dipole_moment: 2.660
 S           1.02048752237194    0.69434140695380    0.65056986983555
O           1.11582276719589   -0.14282974529903   -0.55211463103990
O           0.26655536250598    1.91669552232206    0.34145162177185
O           0.43604712554222   -0.03645378693758    1.75726394291574
O           2.45464547405374    1.10419574969316    1.05582179719751
H           2.76530443665153    1.60261430593609    0.24680071262474
O           0.79919579043445   -2.49112143675063    0.64868774262065
H           0.80396270809871   -2.05736819692638    1.51143257586051
H           1.07304234035965   -1.77107561582292    0.04654448492790
O          -2.09630006144677    1.30870881947165   -0.16988360973136
H          -2.29379727454468    0.67992468401736    0.65564856228801
H          -1.15846527070836    1.70583479020209    0.05647216952882
O          -1.74528042819779   -2.50092296523768    0.03041485341571
H          -0.77949081972171   -2.59366161182925    0.26791592945225
H          -2.09343225276623   -3.38966719682426   -0.04961007833573
O          -2.18271913646765   -0.36715050130331    1.68766686709003
H          -1.23599550902078   -0.24193227484636    1.92586126387547
H          -2.21266685272348   -1.21430033120009    1.20387050327111
O          -1.23189903673601   -0.46618816011577   -1.71745612025436
H          -1.52825728296956   -1.28815474772665   -1.28246424737036
H          -1.86607283244962    0.63081833432968   -0.93883552615392
H          -0.29286206699115   -0.35655175368877   -1.43886981977179
N           2.62034487627769    2.25765078156977   -1.26010818623258
H           1.71478010289289    2.67329741625225   -1.06944496795328
H           2.46051581984128    1.43102613124268   -1.82292443229673
H           3.18653447852344    2.91227037252255   -1.78471127752973
