    26
        -50.46489357  Gyration_radius:  2.55389527121 Dipole_moment: 4.637
 S           0.62715590916532    0.19556355937963    0.50044996339070
O           0.49815066347385   -0.31007400035590    1.85226523776108
O           1.94641945676684    0.96075429891222    0.39424800762587
O           0.61820558196353   -0.88777816203197   -0.48292796296150
O          -0.47632499262625    1.14194419209004    0.21863370469900
O           0.85545127933474   -0.14880934753039   -3.00295663326578
H           0.69019220360540   -0.46983816123889   -2.08912574119493
H           1.40053230699348   -0.81533478328036   -3.42443362501130
O          -0.07518383238087    3.45289401607152   -1.06300027456295
H          -0.33599619196281    2.62128190875757   -0.61742159219148
H           0.16607983221533    4.06561066158656   -0.36618323270940
O          -0.01932686603829   -2.83377449729570    2.41614179446402
H           0.24605088753178   -1.89503803700593    2.28480201136270
H           0.79802877367019   -3.32654854028433    2.50020442940963
O          -1.39465245296065   -2.45314578733119    0.16294614768019
H          -2.02572207770419   -1.28391365069544    0.83879078376438
H          -0.64243626682390   -1.97372624333807   -0.25560331867007
H          -0.98650799605794   -2.89450241916058    0.93798632525709
O           2.01627861610514    1.99083822228523   -1.90405062930963
H           2.03333088950164    1.37812547966792   -0.55093462063094
H           1.62899568412250    1.28929290929370   -2.47363524097630
H           1.31073615546697    2.66420818716488   -1.80159248017926
N          -2.22360436567188   -0.33998104866028    1.37009863515865
H          -1.59862649130582    0.38364746509292    0.86935321945172
H          -1.85264635638100   -0.43297725186658    2.31454174094916
H          -3.20458034000831   -0.07871898021803    1.37140334069591
