    26
        -50.45249219  Gyration_radius:  2.48702228739 Dipole_moment: 3.090
 S          -0.80811617288100   -0.21001204252361    0.79475626047253
O          -1.14984132514783    0.58852187293686   -0.38625733183319
O           0.12853763852255   -1.27204039365293    0.44585255645970
O          -0.27207533363024    0.64263716114552    1.85151858903026
O          -2.10058625310814   -0.83430318769436    1.35692518180348
H          -2.55917149260281   -1.31791739074780    0.61064728346522
O          -3.28872096490695   -1.91873736000864   -0.67164464286645
H          -2.53499362287190   -1.93422550700164   -1.32513571474589
H          -3.88757140849302   -1.23279697187292   -0.97473091355448
O           0.11996588254886    2.73374844313233    0.16975876408640
H          -0.09691249909954    2.70182183925961    1.10958355344617
H          -0.42622882801262    1.98174969880706   -0.19819829172578
O           2.00385866243239   -0.45718360675190   -1.05916763009425
H           2.72293503550817   -1.07184522037235   -0.89586771499749
H           1.23158416652006   -0.79342861817323   -0.50226878089126
O           2.22981900721434    0.61705655506976    2.36481414771611
H           1.24571390672104    0.48336173368075    2.23685907856396
H           2.33044914781949    1.07107531425733    3.20332960959749
O           2.41466655656173    1.73579406688281    0.10515636569687
H           1.47666325978544    2.23999929936759    0.06906166670962
H           2.47177133726713    1.35343445077499    1.06098664010808
H           2.29428793940034    0.88010017811744   -0.48059566124416
N          -1.13959460793283   -1.60036917980644   -2.18421109469546
H          -0.94538286719602   -1.51864983919355   -3.17412318739049
H          -0.42652703261006   -2.18744598014479   -1.76904934658890
H          -1.03453017180654   -0.68034531548893   -1.75799938653001
