    26
        -50.46460236  Gyration_radius:  2.41129693632 Dipole_moment: 2.665
 S          -0.23981051106885   -0.10200689417076    1.37182722399433
O           0.78057382673538    0.70151571130904    0.68624335532205
O          -1.57207234569017    0.44964046041842    1.09154061882157
O          -0.14498097744198   -1.50052240094442    1.00363463934925
O           0.01531940553140    0.00807770457475    2.89228841455053
H          -0.07928654403940    0.99094952224665    3.04834509736526
O          -2.08553492443966    0.15181453277516   -1.32938300123863
H          -1.82913365822500   -0.86742768427958   -1.43447506557454
H          -2.01896563266235    0.30563566172397   -0.29945878265115
O           1.27020425066090   -1.33553492583330   -2.42928884780948
H           1.76282690335431   -1.36387773656080   -1.56081551295095
H           1.87353820585067   -1.66464282424659   -3.09642701817561
O          -1.11410840104153   -2.15514291452054   -1.36383131769548
H          -0.30428107607996   -2.03361607411418   -1.89484455810958
H          -0.81536211655516   -2.10870772931581   -0.42722413595118
O           2.35404731723430   -1.31037157503042   -0.04569098257165
H           1.79760426303852   -1.92966583239841    0.44367494708418
H           2.00957026944326   -0.44159767514483    0.24153044475395
O           0.17695822124707    1.09993525799429   -1.85390575329479
H           0.47608942048867    1.10215798040219   -0.91484220350493
H           0.63493858506708    0.34034961927497   -2.26135020256551
H          -1.23068970625482    0.65193381754802   -1.67990921971893
N          -0.36810299944084    2.55714184289291    2.61898441514395
H          -0.51462501086942    3.40544084119077    3.15114218685161
H          -1.20886920607510    2.33869996359875    2.09521352490717
H           0.37415242121910    2.70982137056132    1.94702177367601
