    26
        -50.46400455  Gyration_radius:  2.43642667288 Dipole_moment: 6.308
 S          -0.07523640286646   -0.91705040767402   -2.05692822676400
O          -0.49317574641251   -2.27618146239187   -1.79991409009493
O          -1.15034384714714    0.04377694520118   -1.98007385288020
O           1.08258246378163   -0.52048995060859   -1.25193594527955
O           0.46617248466914   -0.88480972571330   -3.55297076818043
H          -0.28603221215795   -1.22074295106990   -4.02831203320793
O           1.60472053105289   -1.59094352632310    1.03681216636880
H           2.37884121296678   -2.14945066141225    0.95663899163041
H           1.41973410191879   -1.25094013301172    0.11754342689372
O          -1.71527026107867    0.61436091320781    1.67464809827737
H          -1.59759511195581   -0.25115698469750    1.19423084854460
H          -2.52158051997837    0.52332204029465    2.18360567610969
O           1.28853022964440    1.95936904534564   -0.37529281533015
H           1.17792167779488    1.43589372453148    0.96476693104956
H           1.32276645684527    1.10972195547096   -0.86963419074335
O          -1.18957925394616   -1.73615513990918    0.67024137496268
H          -0.32858236294932   -1.96816617874013    1.04185792883459
H          -1.10575439263301   -1.94428619008350   -0.28401768312714
O          -1.29823534623075    2.28276071299395   -0.57794444516922
H          -1.61711600134072    1.89287735737777    0.24802820172781
H           0.36000483406471    2.28584041618925   -0.52687992979410
H          -1.34844357136624    1.54476910760514   -1.22068189081991
N           0.96948222127583    0.89385829456688    1.92086725816761
H           1.31312414612463   -0.07616699953344    1.77810611599744
H          -0.06454003089014    0.86378054549466    2.01730435165385
H           1.40760470081854    1.33620923290373    2.71993453117770
