    26
        -50.46489355  Gyration_radius:  2.55400428093 Dipole_moment: 4.639
 S          -0.12139034042956   -0.68284817569092    0.44849978472801
O          -0.27371373381526   -1.89531643786299   -0.33020456615744
O           1.16710130894778   -0.03788619645944    0.19443717820541
O          -1.22496919286583    0.25174851235647    0.13007901551045
O          -0.21949436395094   -1.04459342569709    1.93067831021071
O          -2.50692984120915    1.63643665287670    2.02308311699758
H          -3.20239995442173    1.04362266854526    2.31303992878771
H          -2.08357407085889    1.20497917980496    1.25316499380975
O           1.42602913829368   -2.64185134697518   -2.20344637263694
H           2.11768359574523   -3.18473079971669   -1.82284030276429
H           0.79100762502934   -2.46559034384623   -1.47230544939798
O           1.62494939388641    2.18199194068914    1.54188568779563
H           1.47333062587844    1.40299298565226    0.96258146112600
H           2.55558361219203    2.16561722735753    1.77136028211196
O           1.46118314405445    0.01621613421138   -2.41897802665743
H           1.50877127931494    0.12923855099232   -1.44132373675844
H           1.68446748539889   -0.92916569275107   -2.55479594853651
H          -0.02298984947098   -0.05247121795034   -2.54049316192965
O          -0.15862514526707    1.11836531894574    3.22147193421501
H          -0.16723950052938   -0.18293878291075    2.50505600770535
H           0.50549416165570    1.65150313930036    2.73023830004277
H          -1.03098261908922    1.48555854462869    2.96468129646417
N          -1.09692768555306   -0.23811028396559   -2.38352758431153
H          -1.69010238746752    0.26055427207514   -3.03933736223021
H          -1.27026337813194    0.05194019011116   -1.35844580392029
H          -1.24599929733670   -1.24526261372377   -2.42455897240817
