    26
        -50.46341983  Gyration_radius:  2.49317819829 Dipole_moment: 5.554
 S          -0.01356035867768   -0.69272478071238   -1.94105773660433
O           1.39970329415346   -0.55021328786757   -1.67325668017123
O          -0.66403799627469   -1.66195640149840   -1.07827103457232
O          -0.73251264731031    0.58030797681130   -1.93821733735566
O          -0.12297860354136   -1.23640164117709   -3.42406970155961
H           0.64194127131602   -1.79981826182730   -3.47219790275962
O           1.33313189789366    2.25103115436642   -1.45397707843944
H           0.54521857382225    1.78131918456243   -1.77922147572120
H           2.03467657803731    1.59452550908032   -1.51841150248413
O          -1.82580607714933   -1.38268628122224    1.18995101433751
H          -1.35545247554285   -1.53154397888621    0.32077350934231
H          -2.54260295018600   -2.01918645522939    1.20203698714915
O           0.48957200048125   -2.02006251007894    2.56467936220467
H           0.46622150185873   -1.60331938414752    3.42764434514079
H          -0.37129570805635   -1.85314121370495    2.14313865473944
O           0.76754344374192    2.08582710466638    1.15495692096096
H          -0.59348504807812    1.64560862677298    0.86535122797423
H           1.05308993798755    2.40571819887406    0.26899530487449
O           1.89642031607263   -0.26649574683740    0.97405941320963
H           1.26715716359362    1.23263230298096    1.25232768613195
H           1.52085223795615   -1.01465678772059    1.47057249176787
H           1.79007144194212   -0.47033360332983    0.02778144834407
N          -1.54903364908818    1.24134751386776    0.47053258316423
H          -2.29861051797507    1.92041090807875    0.53908126727165
H          -1.79266717108286    0.35630838812083    0.94493538243979
H          -1.34355647744811    1.00750346806606   -0.53813714908697
