    26
        -50.46342104  Gyration_radius:  2.49356693042 Dipole_moment: 5.587
 S           1.57683507046518   -0.89738840112594   -0.97880741423697
O           2.13839737650600   -0.59917420524745    0.31919840322130
O           0.46227163008186   -1.82547550023247   -0.91935703111272
O           1.22675857570344    0.29796529990239   -1.74420189866751
O           2.73039607683537   -1.60296017692904   -1.80242607158730
H           3.15518234748029   -2.11729297962949   -1.12429425609734
O          -1.93724339930996   -1.67767237794021    2.08018731423622
H          -2.05654686813096   -1.63662552825257    1.11543115706275
H          -2.65497447268952   -1.17903270423992    2.47404860855315
O           2.03957643737656    2.19110995899012    0.00134805722449
H           1.85316745119869    1.61946463670773   -0.76402125571502
H           2.45522683225834    1.59730793068930    0.63534821702696
O          -0.44802908247332    2.26321239173297    0.98092533315691
H           0.45981277660587    2.50765708004662    0.68934404483337
H          -0.98137909251813    1.67065728640484   -0.24123765989756
O          -2.05439798322708   -1.40587524550612   -0.67113594138509
H          -1.07743815900364   -1.60548856091851   -0.73954613499285
H          -2.48972738820320   -2.09854970984121   -1.17092158097586
O           0.23131097371382    0.01914068904602    2.14034754714194
H          -0.28697633103184    1.47586522862174    1.56499506380174
H          -0.41982079395401   -0.70159107450107    2.20295791542792
H           0.94935045707985   -0.29581448265810    1.56278836094481
N          -1.20077789780625    1.13970710217375   -1.19126853948345
H          -1.76469094528510    0.29246546127210   -1.01249081315603
H          -0.25848414799484    0.81795639256274   -1.54145352519221
H          -1.64779945390566    1.75043147825058   -1.86575790017208
