    26
        -50.46400457  Gyration_radius:  2.43654380735 Dipole_moment: 6.308
 S           1.64876127683172   -1.39346547820795   -0.64671996343185
O           1.47370624834129   -2.53787372600603    0.21800471707794
O           0.69514839316916   -1.33427651707946   -1.72932406774638
O           1.72645186793460   -0.13233618037751    0.09449293826086
O           3.08864400139510   -1.54140134440676   -1.30777840506258
H           3.01936205522955   -2.40147213051261   -1.70792530600781
O           0.61588199208676    0.18610652769160    2.40141963105695
H           1.29413009133083    0.23056531190556    3.07644393176427
H           1.09684362550684    0.00888514371012    1.54574668728381
O          -0.89770181374234   -1.74764041527540    1.01128054852787
H          -0.56216769825527   -1.26323582156644    1.77681675200971
H          -0.10147723474985   -2.16570601808148    0.62096087094013
O          -2.46618916640113   -0.04563717194389   -0.19373322012065
H          -1.85687411512356   -0.75577901351297    0.15025748882861
H          -3.34237787283953   -0.43254885897343   -0.19829658115240
O           0.69868925015845    2.06712644510978   -0.93845880086632
H          -0.24362078998022    2.07318917345116    0.15417807171586
H           1.26096214611575    1.31267970315606   -0.65196513600468
O          -0.89836374642542    0.65157986974242   -2.44907392746546
H           0.13884709663830    1.68353365080912   -1.66732046713283
H          -0.30528694947550   -0.12386706169673   -2.36409892007407
H          -1.62714609803570    0.45339609407945   -1.84448002598483
N          -0.96470310857824    1.87750091085847    0.98679524030773
H          -0.43382183690825    1.34379499933664    1.70274394090120
H          -1.69923200173108    1.25660844399834    0.59393540042210
H          -1.35846562248817    2.73027347376964    1.36609861196956
