    26
        -50.46400452  Gyration_radius:  2.43647724826 Dipole_moment: 6.306
 S           0.54575749313968    1.16445242204346    1.85032272976060
O           0.48743199763622    2.10677654980516    0.75783719965224
O          -0.66351321447154    1.11693468703698    2.63995696829093
O           0.98910797166333   -0.16255373404371    1.41606757948947
O           1.70348899912753    1.65813312933228    2.82410919449284
H           1.34032540997779    2.47824441502411    3.14052017703254
O           2.13079640901953   -0.46069070229913   -0.94377865164739
H           1.90714819332691   -0.32184014981643    0.00385648910091
H           1.00148971340116   -1.27376561900429   -1.32479000352412
O          -2.10412561257764    0.23971894629937    0.63165151840821
H          -1.96733260657882   -0.69254517016186    0.84512390841664
H          -1.65176967183587    0.72270896164060    1.35494418996615
O          -1.52292414670564    0.41145314962710   -1.90607616786092
H          -1.71809005752660    0.47407428894164   -0.93035238569886
H          -2.31564005686718    0.71311202991280   -2.35110041731763
O          -0.64914717883034   -2.13081105406053    1.10296690721145
H          -0.03187761055940   -1.37386720909376    1.30545679313619
H          -0.51291379820494   -2.77145992537859    1.80196623052641
O           0.98661948359834    1.72398732908561   -1.81238171436584
H           0.86720635627753    2.03746302671054   -0.89168507717645
H           1.89244746216909    0.40516870237593   -1.37423230987766
H           0.10825130376819    1.40670183333413   -2.06494664070685
N           0.01991463059057   -1.78004582658174   -1.50293595537233
H          -0.29993771038434   -2.11516612104342   -0.57308385699677
H           0.09071850107231   -2.53638630218111   -2.17305754000571
H          -0.63343226021582   -1.03979764750695   -1.82635918493812
