    26
        -50.46342071  Gyration_radius:  2.49347533318 Dipole_moment: 5.573
 S           1.11102994585614    0.37736067374917    1.69498780738650
O           0.66220725063622    1.63595513135951    1.12793590818244
O           0.02917319172988   -0.43605911268182    2.20208864764138
O           1.98356241972833   -0.33776300523224    0.76507975801219
O           2.01938351501713    0.72367934105966    2.94466099977115
H           1.36542168111321    0.82246487694190    3.62834618425949
O          -0.64486770273697   -2.03987510045862   -1.30487111289826
H           0.32021606357124   -0.99976499912687   -1.64573772586382
H          -0.13485886236254   -2.55755820641053   -0.64086052279145
O           0.79807718103734   -2.76336211784302    0.82756408738534
H           0.17000600866743   -2.57096555143402    1.53174043331072
H           1.39740862350629   -1.99654409571732    0.83522990769563
O          -0.01998027256904    2.24672869712800   -1.26647704038084
H           0.21162612045028    2.03503766557668   -0.31756307088070
H           0.25160504942491    3.15695191041821   -1.39620023130427
O          -2.69282839812717    1.75806858437646   -0.74252840156392
H          -1.78118118837762    2.00938871382002   -0.97146191256349
H          -3.13215724348292    1.51734076339438   -1.55983563090344
O          -2.01018678643006   -0.63810087746894    0.43086807454011
H          -1.31043625787490   -1.55956934138100   -0.74515770830136
H          -1.36084673899062   -0.51619061137247    1.14624527355539
H          -2.32914041383558    0.24730053695989    0.18243726429312
N           1.09827964978854   -0.21009197643334   -1.70592558126999
H           1.57330785431840   -0.23059937278054   -0.76350134102695
H           0.66334293910817    0.72170205461622   -1.80748669508551
H           1.76183636084314   -0.39553462109845   -2.44957738121026
