    26
        -50.46342034  Gyration_radius:  2.49325237999 Dipole_moment: 5.563
 S           0.49576103506501    0.75827014081631   -1.85147008144810
O          -0.37708547269433   -0.34348967490016   -2.18842599480005
O          -0.16184492648890    1.79038937734499   -1.07091887741800
O           1.74274357441277    0.33317798091823   -1.21755377905985
O           0.92360474974417    1.41228640570116   -3.22837930846583
H           0.12744032799429    1.30882082848970   -3.73854365009463
O          -2.83092704406770    0.78735446561480    1.50160697380591
H          -2.01144254964878    1.30990921137554    1.54687902424786
H          -2.96252988851368    0.39454358420864    2.36608369201637
O           0.33934685847663   -2.17358141670992    1.19776920824652
H           0.99755225564070   -0.89044559578837    1.42114995105445
H           0.80476358945624   -2.48366122249416    0.38767712172943
O           1.37017928088468   -2.34110163433007   -1.26433679538070
H           1.68819109700288   -1.42330760842729   -1.32589296491715
H           0.56202979636369   -2.33947237505075   -1.78802593487308
O          -0.38897504983179    2.08821167979616    1.46511519952444
H          -0.38281634760815    3.03368727212076    1.62354212073301
H          -0.34364450970631    1.98678561294313    0.47183487654144
O          -1.76449777097806   -1.23154214058763   -0.03824377939139
H          -2.26506453481806   -0.50080434182722    0.36525834592021
H          -1.37709043875619   -0.88966609146305   -0.86366952386872
H          -0.55526319805468   -1.91458515012151    0.85191218843434
N           1.49099506092844    0.10351848785445    1.38807154993039
H           2.33987303187534    0.11765574011384    1.94205951071272
H           0.83370412111056    0.84544968787673    1.67995979072571
H           1.70499695217702    0.26159675655126    0.36654114608333
