    26
        -50.46342167  Gyration_radius:  2.49358466775 Dipole_moment: 5.612
 S           1.08333918607151   -1.49101964839968   -0.92397551057827
O           1.68495823610351   -1.42026515460852    0.38826671148210
O          -0.31569623773514   -1.87736307086768   -0.88997341869879
O           1.27627149031044   -0.27568907673999   -1.71303022651234
O           1.86321359955696   -2.62704763078626   -1.70334853470584
H           1.99957066956425   -3.26702132914036   -1.01293617111886
O          -2.50234346930927   -0.67528556386494    2.04019531421262
H          -2.57112083395810   -0.61211668495826    1.07167662733936
H          -2.95943639780466    0.08407698115737    2.40517098255256
O           0.51120952612248    2.26552460074439    0.94373863957366
H           1.44452710803676    2.10498037782830    0.67508810686009
H          -0.19352945910269    1.92075068672377   -0.28576265383948
O           2.76454857301873    1.14826434438256    0.03424565933163
H           2.88207270129650    0.44901268750153    0.68584217619239
H           2.37479417382603    0.68919536794539   -0.73027761383784
O          -2.43429867808470   -0.44515225298262   -0.71591646779637
H          -1.62714181092259   -1.03357876449440   -0.75526142318508
H          -3.10761752487303   -0.90503390462243   -1.22009905894875
O           0.17246489690630   -0.02900220005951    2.15192304088590
H           0.70669919054105   -0.62519970673434    1.59728728445978
H           0.31865350434343    1.49612724624267    1.54226771114863
H          -0.72081388332725   -0.41222070341462    2.20185590669448
N          -0.59347076129126    1.50881198065752   -1.23636151280922
H          -1.46117250440578    0.97459357180853   -1.06473913490145
H           0.13776037956492    0.81869666253223   -1.55717864235183
H          -0.73344166447759    2.23596120413190   -1.92869779142742
