    26
        -50.45448228  Gyration_radius:  2.44769783426 Dipole_moment: 3.745
 S          -1.14839550537222    0.85986070201446    0.19937581545681
O          -0.31236249865280   -0.23556994992441    0.72616406113597
O          -0.41226492958882    1.66521060087295   -0.75145910721975
O          -2.37706871746225    0.29727911512751   -0.36460617261109
O          -1.55186959460451    1.74134493155121    1.39821525510896
H          -0.69500568786697    2.26060343160940    1.58297710868644
O          -1.02881903465459   -2.71520772431415    1.02769694811874
H          -0.76366457258871   -1.76262119032831    1.08701157381427
H          -0.21815384063372   -3.21315395482639    0.90047003954043
O           1.60060436083349    0.20335516357521   -1.58842587670913
H           0.86912004650606    0.82741194215106   -1.38343401973002
H           2.11198733862702    0.15792322352154   -0.76920547618618
O           0.22843153900148   -1.86186163783063   -2.34412006336329
H           0.19491244131091   -1.74387474698894   -3.29518425315775
H           0.78852575731788   -1.10185047582248   -2.00150432024941
O           2.20172485691051    0.30930918610647    1.20816474851756
H           1.24832771550539    0.10176674526190    1.06282864210159
H           2.52752766819377   -0.34289732591930    1.83010039918225
O          -2.03476701416957   -1.99000025635621   -1.19703880785188
H          -1.14516018004646   -1.92977777380385   -1.71972535895495
H          -1.77615114595929   -2.44311483927240   -0.31779823872517
H          -2.26244653926047   -0.98115416511169   -0.88088011202356
N           0.75217941063828    2.89438065323035    1.49130124689893
H           1.46810062276500    2.18697679703537    1.63307582235251
H           1.02648258899332    3.74119672344950    1.97214359426115
H           0.70820491427358    3.07446483500447    0.49385654161469
