    26
        -50.45510214  Gyration_radius:  2.47432668381 Dipole_moment: 3.183
 S          -0.02059897260616    1.33060401459272    0.50548415212819
O           0.89239146388717    0.65761614641301    1.42021521970085
O           0.39663497281205    1.14607425620454   -0.88126114668299
O          -1.39689401650754    0.87855647928420    0.70356044011974
O          -0.00673496880553    2.85041262815372    0.81841433377793
H           0.94758042988274    3.07579603155266    0.66582776270831
O           0.27763961490996   -1.84483572571274    1.59238972604906
H           0.47303977809266   -0.86936807480187    1.57391242132410
H           0.67553689022719   -2.17854568385003    2.39802479471346
O           1.15548835601837   -1.49575064805886   -1.06767753825883
H           0.97016093582617   -1.90357412660853   -0.21237680930179
H           1.14129866256048   -0.53817200502270   -0.90510021572727
O          -0.77059811713743   -0.48511404397005   -2.63484017946896
H          -0.37611827507928    0.32940413828319   -2.25918051399908
H          -0.12654289495602   -1.17141170545494   -2.36629851986507
O          -2.13223424876443   -2.55300780096937    0.66501928440855
H          -2.72035703526403   -2.46266006564442    1.41763911232207
H          -1.23003898023317   -2.33951746695013    0.99326055671352
O          -2.57177427823193   -0.58475091513085   -0.91125096551869
H          -1.88942513572352   -0.60316884675970   -1.72877555036776
H          -2.46359983928426   -1.45351356938454   -0.38748714483017
H          -2.15383287320870    0.12423088033299   -0.25754960423981
N           2.53999507122765    2.69390040676620    0.28430986954656
H           2.52827329406222    1.86785297442226    0.87403414629725
H           3.43861820058423    3.15203270368234    0.37027120783228
H           2.42209198569161    2.37690999875025   -0.67056480946360
