    26
        -50.45448231  Gyration_radius:  2.44761859291 Dipole_moment: 3.742
 S           0.25441547279137    1.38781923857552    0.33358716479644
O           1.28243644197540    0.75986604426971    1.13583710223768
O          -0.33135139527572    0.42888490967543   -0.62230947231170
O          -0.81630662071744    1.97532530664918    1.14132404172316
O           0.88651073401433    2.52571187192283   -0.49255294022570
H           1.73960988699878    2.09162737443881   -0.84063425775567
O           0.86530791987923   -1.82886188064239    1.01474402654086
H           1.09714321752405   -0.88589639601945    1.16845417418141
H           1.07543414282828   -1.97705738847342    0.08266376852177
O           1.29787568379318   -1.27513277015228   -1.75892728710438
H           0.87578100593385   -1.59368974710761   -2.55811525954340
H           0.68053003324684   -0.61524945688453   -1.36324638343785
O          -2.85864690757395    0.10989968681986   -1.13441806993203
H          -1.88801008267726    0.30437662597780   -1.09725096821537
H          -2.93889083431323   -0.81929313473788   -1.36129765898389
O          -1.61419099966582   -1.81059193036314    1.76933882030035
H          -0.67494798032846   -1.83990693182338    1.41459990126918
H          -1.54724151119019   -2.07933244753469    2.68740262417587
O          -2.72275788645657    0.44286484729899    1.38676115711250
H          -2.98759132269848    0.35850681978670    0.40272870834995
H          -2.28002395383617   -0.46511669931996    1.60609396534296
H          -1.91829659483073    1.16409891746544    1.35028546259272
N           2.95529450835351    1.10927005864297   -1.09435190577549
H           2.65275846613191    0.27225987124291   -1.58508381279560
H           3.06685757518230    0.85526028900627   -0.11841280403835
H           3.84830101091690    1.40435689127955   -1.46722010700752
