    26
        -50.45198913  Gyration_radius:  2.60459611171 Dipole_moment: 2.746
 S          -0.60362312281706    0.23490384410189    0.29745770849353
O          -0.99416717229228    1.42501864724047   -0.58671074233071
O          -1.04489342701125    0.65982386476598    1.67129635010340
O          -1.32137899469852   -0.93925632317089   -0.14500324684671
O           0.83429137957562    0.06396981190906    0.26579683002203
O          -1.73676679945524   -2.81618835734540    1.69274227824831
H          -1.57700218518928   -2.23044500696056    0.92358587906041
H          -2.68460860479457   -2.95559026631712    1.73451911070778
O           1.37241101702589    0.06398101498967   -2.41971248627988
H           1.53014620200621    1.02806857025707   -2.51062742556386
H           1.36465490956054   -0.08913692496207   -1.46123583485215
O           1.91947943875250   -1.19741206758515    2.34360413431555
H           1.62411209673775   -0.79258936823076    1.50217528963673
H           2.62505188661771   -0.64128179032693    2.67873519773371
O          -1.21212685478171    0.08640736700104   -2.67994267590123
H          -1.49497448900248   -0.70434531677301   -2.20351084537176
H          -1.17223918477260    0.98891860643982   -1.51793510795644
H          -0.22143844200569   -0.00592123061029   -2.79634633287897
O          -0.53169252736868   -1.11309509995614    3.28513540765717
H          -0.99029363436299   -1.88009129063724    2.85344007646826
H           0.43513131484826   -1.24503820819999    3.10735933088739
H          -0.83493718281569   -0.11391691999610    2.46483775716824
N           1.26963881293597    2.79933010065436   -2.20407495121217
H           2.02075704709539    3.35079013282368   -1.80908656728183
H           0.54276647897354    2.70955424583343   -1.50155353579356
H           0.88170202723860    3.31354197505345   -2.98494559823459
