    26
        -50.45448221  Gyration_radius:  2.44759030325 Dipole_moment: 3.746
 S           0.99162670880146    1.00102373891155   -0.33580168818875
O          -0.16299887236377    1.58557030433225   -0.98356004419717
O           0.59500514994558   -0.10071301948684    0.56157139453137
O           1.98856150009783    0.50847816582408   -1.28858192065696
O           1.67559806988721    2.07367712505407    0.53511057996426
H           0.88224444380817    2.51434798037290    0.99805551062015
O          -0.80487460052103   -2.17144104876256   -1.90919563411080
H          -1.30439883087669   -1.43920423329319   -1.43702009893757
H          -1.15170847691963   -2.17975389685430   -2.80318420244861
O           1.74607785089145   -2.42258137813188    0.75534476796271
H           1.03447781356860   -3.02033058274471    0.99545222050607
H           1.37916107964271   -1.50616033840508    0.83759306628299
O          -2.09191854291137   -0.18894430162823   -0.84508302170167
H          -2.24314960044732   -0.18133176277599    0.10979113073780
H          -1.44255521571827    0.53415485052225   -0.99362284856126
O          -1.60316173463370    0.22097275949457    1.94516604891528
H          -1.56549414913996   -0.37360410714609    2.69576802945161
H          -0.75524258711488    0.10286689255677    1.45494386219994
O           1.71437893679239   -1.89287043702357   -1.73574557186708
H           1.88602704475878   -0.83184853559546   -1.61537195729086
H           1.87972020690301   -2.25074622732673   -0.79248038760568
H           0.69544282642686   -2.00205559402826   -1.87070281116557
N          -0.57197390177841    2.96525571697842    1.42998872841026
H          -1.06346217839446    2.20781610910941    1.89669586232424
H          -0.93543028917856    3.01472394860304    0.48411325144449
H          -0.77195266154435    3.83269787144934    1.91075576337104
