    26
        -50.45510226  Gyration_radius:  2.47450754438 Dipole_moment: 3.184
 S           0.55739753928275    1.26893251769658    0.32527066790794
O           1.69955439172793    0.37478592378007    0.46367162252397
O          -0.06276172842232    1.12704427164789   -0.98863709745434
O          -0.41836938927502    1.05005136695622    1.39197182886212
O           1.05152698696559    2.73245268251222    0.47340543811868
H           1.70201506732285    2.79882968764689   -0.27303029181661
O           0.89160711478075   -1.98602147261913    1.13053229764896
H           1.20498137400285   -1.06179594091755    0.93660611638554
H           1.64476034632733   -2.44706212581609    1.50337762768160
O          -0.10905462368396   -1.58403669986327   -1.47869820509885
H           0.22990411418052   -2.02029921810920   -0.68691931539895
H           0.16296388963702   -0.65507672597964   -1.39774237508009
O          -2.36087282700327   -0.12956898117036   -1.47622324271952
H          -1.67583430481276    0.57096194063319   -1.49019317339591
H          -1.83659374964468   -0.93708593651106   -1.65250029217157
O          -1.62502995497496   -2.18670109906557    2.02302741503203
H          -1.55956877915654   -2.05701805551728    2.97134817933372
H          -0.70472698285502   -2.16109249731223    1.67725041571919
O          -2.60208907998831   -0.05061560689907    1.00575975447944
H          -2.62728948678139   -0.12255761998555   -0.05670150241190
H          -2.34531780461983   -0.96423586666180    1.38003641154316
H          -1.73908363219805    0.51918410112512    1.19334939076048
N           2.56488797434929    2.17633382529033   -1.57515436300563
H           1.80235563357869    1.96338602792050   -2.20711553541789
H           2.78337514267791    1.32006147027086   -1.07581406079525
H           3.37126276859923    2.46114404092616   -2.11687770125146
