    26
        -50.46850040  Gyration_radius:  2.45640879697 Dipole_moment: 4.950
 S          -0.37024478269725    1.51453947328668    1.28749491958561
O           1.01369875971520    1.01971393109488    1.25127849104083
O          -0.49848751235947    2.83426940402759    0.72655476995184
O          -1.28761576737615    0.52943438307212    0.75928694214662
O          -0.72393089887948    1.65361307563173    2.83451022004730
H          -0.50951759915870    2.56062276975487    3.02851395706658
O           0.11551718742713   -1.24165650615944    2.29972922609111
H           0.60614460995950   -0.42138810335676    2.10232725258970
H          -0.80178790465448   -0.98641884120709    2.14698731611058
O           0.05698398234473    0.11319289661402   -2.70642382098292
H           1.12864794529364   -0.10172220829895   -1.70205346002454
H          -0.37295389275347    0.97355111056370   -2.49647852749337
O          -1.32259434694379    2.16148076124266   -1.70992747027151
H          -0.97879935160566    2.53303650383027   -0.87433716761188
H          -2.13904654077544    1.71781104779324   -1.46706070873343
O           0.84598046085823   -2.66897280285423    0.22136794149846
H           0.56474878628083   -2.20736754314384    1.05858164532879
H           1.13640792518246   -3.54488096383349    0.47719433667185
O          -1.37285954471034   -1.45375910157356   -1.10982407865525
H          -0.74334253026621   -2.08338136625519   -0.73482795077160
H          -1.47598732868573   -0.75600989253513   -0.43882640024189
H          -0.57950497137080   -0.55596832551258   -2.36232132443584
N           1.79554485519626   -0.34052961639274   -0.86274916548264
H           2.76992092545382   -0.21005893252177   -1.11022133873733
H           1.60903680089908   -1.31759924323664   -0.57080171289865
H           1.53404073361516    0.27844811998641   -0.04797388177416
