    26
        -50.46850097  Gyration_radius:  2.45651304649 Dipole_moment: 4.967
 S           0.02175793312130    2.01390456120029    0.17721506816238
O           1.30458841892866    2.64613544970687    0.34276725620637
O          -0.17457845513955    1.48561029312904   -1.18076041574175
O          -0.30776300386401    1.01939980071250    1.17366483355470
O          -1.06580674941320    3.16696341357203    0.33789536039724
H          -0.59823106409998    3.95132397921771    0.06883279126405
O           2.61103453481593    0.62085878582094    1.46479750763663
H           2.07820379104993    0.52888139279038    2.25853550932477
H           2.26065760219259    1.41473669057060    1.01590482296467
O           2.09293643723109   -1.70087847049147    0.26760468397661
H           2.47615717270791   -0.87739895772798    0.64734224561345
H           1.28223512807036   -1.30667212928239   -0.91163467546411
O          -1.87541836769782   -1.93081521338539   -0.80041671225110
H          -2.21126888778780   -1.00735085595423   -0.63486354238800
H          -2.62602207027763   -2.44442768372773   -1.10012744012103
O          -2.52572565946639    0.57513793830140   -0.36668154579614
H          -2.31960819257821    0.75850032948843    0.55725721999744
H          -1.79327774701223    1.00847066058705   -0.84464524108609
O          -0.24153378465470   -1.68239111389426    1.53245640989766
H           1.34547738200372   -1.91214163120823    0.87418795946437
H          -0.28479054525583   -0.70985127029583    1.53698818030776
H          -0.89255415895124   -1.96772330268944    0.87816854958990
N           0.54862863283239   -0.99848148032157   -1.66865462890052
H           0.89099130707835   -1.15992723688900   -2.60905272923663
H           0.33565525580863    0.02552395931479   -1.52245459707599
H          -0.33174487963997   -1.51738789854866   -1.49432686028626
