    26
        -50.45510212  Gyration_radius:  2.47456763173 Dipole_moment: 3.184
 S           0.27328330017378    1.39334528564315    0.09875646378128
O           1.38805592403580    0.47510932398434    0.31099146753502
O          -0.25681601153772    1.26869246243664   -1.25282534322827
O          -0.77336888023312    1.18734093737465    1.09873206106693
O           0.79316315067852    2.84191179426678    0.29673611064185
H           1.48664453306376    2.90215978394847   -0.41048200212814
O           1.27440595453256   -1.78023564087977    1.72560796760162
H           1.59738081560913   -0.91218683580256    1.40582046262831
H           1.06828891523924   -2.24630921053505    0.88983010445052
O           0.61648494582656   -1.89111573818654   -0.87025736241759
H          -0.28904434801940   -1.76802709315498   -1.18182179277338
H           0.95796983077627   -0.99588769940600   -0.71039749499508
O          -1.90218240657616   -0.71864351343531   -1.36944820926480
H          -1.31812602089667    0.08450175456023   -1.30696312543287
H          -2.44470122978171   -0.59022547531063   -2.14919797058114
O          -2.78038072386073   -1.68955704238090    0.96643396108717
H          -3.56888863928178   -1.17935504762909    1.16228641440425
H          -2.46345557392809   -1.38041550916450    0.08828367522527
O          -0.90842403182691   -0.85078576526340    2.49762081209789
H          -1.65365726277377   -1.30882207642580    1.97273781091310
H           0.00951689183095   -1.33860287491675    2.26507490767445
H          -0.82585255739339    0.07544963406124    2.00786562229283
N           2.36726096721348    2.29665321650187   -1.70874740101442
H           1.53597855489180    1.91311988419717   -2.14712607377064
H           2.84552981174674    1.52622501971457   -1.25728820344692
H           2.97093409048630    2.68566043576942   -2.42222286229676
