    26
        -50.45326343  Gyration_radius:  2.47994411431 Dipole_moment: 3.055
 S          -0.39258592499217    1.63780307786921    0.63659702176497
O           0.96685615330439    1.83960139068351    0.19080771149003
O          -1.33765922196827    1.60475702974537   -0.48133479146117
O          -0.56940432471119    0.50925621174131    1.52601444166363
O          -0.77983668408377    2.91692666329494    1.48488884865388
H          -0.54753681909507    3.62980686525333    0.89897920151537
O           1.09306636301793   -1.58846984445528    1.04249193222836
H           0.56382973398291   -0.86433090605727    1.41786407955185
H           2.01265126312803   -1.26961184967540    1.14593564145890
O           0.77685864367390   -0.38893488562153   -1.32485478319318
H           0.94398070499246   -0.99991236005004   -0.57245942960041
H           0.85843445826086    0.50084194362388   -0.94774712669266
O          -1.19382581455920   -1.08354376994102   -2.86082413528848
H          -1.20157268779246   -0.47704185761431   -3.60357709878249
H          -0.36929191100058   -0.87201890264435   -2.33898439306848
O          -1.90368382409883   -1.71579688897525    1.01521870199902
H          -1.53156781680713   -0.90691900627920    1.42663044403425
H          -1.13996239018162   -2.28099802756373    0.85097861949812
O          -2.71924235729018   -0.39501708970028   -0.98280814936397
H          -2.19511152723703   -0.74258103653349   -1.81360010504052
H          -2.49064188269154   -1.03192610666677   -0.19969113955342
H          -2.21841748499557    0.49631226423782   -0.74527928757337
N           3.22211231632701    0.12256854245805    1.09991515109160
H           3.92286272354807    0.07417231259310    0.37033529125854
H           3.68007775884328    0.44893316731101    1.94191111773997
H           2.54961056243255    0.83612305295549    0.82259224566740
