    26
        -50.45326342  Gyration_radius:  2.47993906904 Dipole_moment: 3.055
 S          -1.07252680516231    1.44138739201502    0.11783135901082
O           0.22043399990829    2.12849844787624    0.13116351696409
O          -1.41473084728082    0.95665039865244   -1.19953750611343
O          -1.16507400270746    0.44553296778583    1.16460272348528
O          -2.14643037240374    2.54614270000456    0.48108199067701
H          -2.12158082317338    3.11511298351525   -0.28126941831811
O          -0.55507899424434   -2.08632173554587    0.37994103184064
H          -0.94639215096370   -1.27463038554398    0.74518881273119
H          -1.18353728487549   -2.33856645400498   -0.32674568656367
O           0.83485849145698   -0.57128709332524    2.56413286511597
H          -0.01736369976121   -0.18229553478465    2.27356349445056
H           0.88762057022839   -1.41731735617215    2.10455784973819
O           3.23182039864385    0.27664724390124   -0.51144580401098
H           3.53138558462662    0.91548049696735   -1.16086311649494
H           2.37056264861475   -0.08929033510660   -0.85966180267557
O           0.86340926881730   -0.49534836563184   -1.23244020837540
H           0.48891693881647   -1.22586868838048   -0.69074128264138
H           0.12765265387753    0.12314631747514   -1.36172297673148
O           2.13032719547707    1.32076685331629    1.49470369842666
H           1.71715261151294    0.53028920662600    2.01963542222323
H           2.70323408111713    0.90488797473644    0.73015305220098
H           1.31850427648280    1.74016128338907    0.97822010208096
N          -2.31574816229561   -1.83687743303033   -1.69413023113123
H          -2.13476010874649   -0.83697589370394   -1.61810525132031
H          -3.31700403448545   -1.96967213068348   -1.62287988420755
H          -2.03565143347566   -2.12025284034390   -2.62523275036235
