    26
        -50.45326342  Gyration_radius:  2.47993006322 Dipole_moment: 3.055
 S           1.25257319329796    1.27469967005680   -0.21906138631897
O           1.91078195893008    0.19205938276537   -0.95301577867276
O           0.15372755452488    1.84444415344674   -0.96435527165949
O           0.91877468384561    0.88386745658792    1.13439110986136
O           2.33891758079079    2.41755620645609   -0.07964032861767
H           2.44502276441040    2.71071802270839   -0.97872968447605
O          -1.63159506073269   -0.00214782607650    1.46392292834904
H          -2.23478864086375    0.72460074664360    1.20704527984350
H          -0.76551428135276    0.43665894428324    1.51619780107777
O           0.84102981547255   -1.57726537636512    2.09841102527777
H          -0.11783247742756   -1.67894761548226    2.09603092720151
H           0.99049708664781   -0.61787081536863    1.95967485016747
O           0.12843251813559   -2.85701127036893   -1.61363073767118
H          -0.40236587878742   -2.02804730028097   -1.44627292057686
H           0.36486556565498   -2.83847554569177   -2.54279952776514
O          -1.00977872572650   -0.59170926180633   -1.06766468250602
H          -1.38293113231949   -0.52991207640416   -0.15977018999840
H          -0.57579293425237    0.26235173769864   -1.21874327973740
O           1.99094055712484   -2.13200106848621   -0.08603569029423
H           1.55583143044663   -2.04151551193693    0.84863501705117
H           1.27266102807893   -2.55638997069182   -0.71028092866231
H           2.05431632158004   -1.14517343687022   -0.43796879766051
N          -2.54503139895980    2.25379217339785    0.22280689828674
H          -2.66951427608580    3.15226089619054    0.67279558695007
H          -3.24667202561056    2.17619930558982   -0.50341535935156
H          -1.63655522682143    2.26725840000375   -0.23852688010011
