    26
        -50.46516747  Gyration_radius:  2.53920465388 Dipole_moment: 5.797
 S          -0.37760560760055   -0.44103283458843    0.21611328339487
O          -0.72464436614145    0.92635711412449   -0.16004992215482
O           1.18189483153006   -0.51700148621901    0.26213058120483
O          -0.91653937690096   -0.82839961121094    1.49411263052190
O          -0.72203924692272   -1.37163972354611   -0.87111365898428
O           0.56137257741875   -1.37433906793432    3.63588343525993
H          -0.07762328305350   -1.22797082811039    2.90724101076765
H           0.74562881210854   -2.31436478263414    3.64410627240943
O          -2.31265998306830   -0.22932381325933   -2.73188081232591
H          -3.14415603395308    0.03777577985607   -2.33720352361944
H          -1.83736399926547   -0.73303432846522   -2.04156093563713
O          -0.48664023669954    1.90280953692437    2.30459161009153
H          -1.03292305860894    1.27866836735868    2.79041023189034
H          -0.64407594263883    1.69731694324957    1.36325174055330
O          -0.28647245652536    1.53451863060437   -2.67541563269964
H           0.65602468922639    0.37650472239127   -2.68421526536723
H          -1.10503238633429    1.10125630359122   -2.99327899513366
H          -0.42365480511371    1.56003346666890   -1.69968608496552
O           1.85153513923536    0.63793235975407    2.39359824047457
H           1.12247437317198    1.29883853417154    2.45638888907134
H           1.60943662390380   -0.05642211506625    3.03847836681780
H           1.50957750348430   -0.03558774310554    1.11752194524810
N           1.13905589718258   -0.58570872699057   -2.45289860893223
H           0.39054465493659   -1.07794093396868   -1.85290329449833
H           1.94074375024999   -0.44276331289773   -1.84072974950602
H           1.38314193036942   -1.11648245070306   -3.28289176387953
