    26
        -50.45510217  Gyration_radius:  2.47445211509 Dipole_moment: 3.184
 S           1.29432520656114    0.49952704601164   -0.31921638429839
O           0.15140528282119    1.13785209104566   -0.96513201885504
O           1.23747059138995    0.66565782799230    1.12731223560598
O           1.38277814706406   -0.91290430716925   -0.68664698152758
O           2.58879118588609    1.17387344706229   -0.84613495393549
H           2.45427097951264    2.11386229616842   -0.55800615235484
O          -2.01895217281793    0.51125020429366    0.61231348553085
H          -1.22193815746684    0.92710009903679    0.24436341342156
H          -1.70214585369667   -0.08080111709249    1.30604599237098
O          -0.95013302972472   -3.20274488913865    0.59288659212217
H          -0.76168371155178   -2.44500752994511    1.19083790084312
H          -0.26306987955139   -3.85196000804096    0.75694966912567
O          -0.31361584454800   -1.12460485380506    2.15653816224877
H           0.33257047052973   -0.47685817456085    1.76543805598147
H          -0.09495603080098   -1.18573912273224    3.08782139780737
O          -1.95050328678164   -0.14229085517057   -1.98644050121643
H          -1.19677504308219    0.48045790668629   -1.92178272750387
H          -2.39273859738910   -0.02441185752622   -1.12121500939024
O          -0.50423994552022   -2.15486550367381   -1.69961496868171
H          -1.20253574691708   -1.37434623078634   -1.89394397837245
H           0.35480164792094   -1.64213406372812   -1.37746653717792
H          -0.79822736263341   -2.64043428260894   -0.85197524658175
N           1.60214256721651    3.34406654763204    0.20881946479574
H           0.76169709192624    3.35617684933504   -0.35657141403792
H           1.80466189099016    4.28671664187408    0.51736602563684
H           1.40659959064249    2.76256183890385    1.01745448851022
