    26
        -50.45760677  Gyration_radius:  2.49519100442 Dipole_moment: 2.750
 S           0.86264577153637    1.12110796567100    0.14468364984627
O           0.12667811981081    1.00460172593681   -1.12638589325130
O          -0.05594153709584    1.32311677297538    1.24854584733848
O           1.72367195152300   -0.03808301432410    0.34592205503466
O           1.79253836254106    2.35416780584264    0.02309087466253
H           1.12943789783402    3.08820516086769   -0.08929543410267
O           0.98307109711669   -2.05707937116650    1.89963760437441
H           1.30583558404352   -1.25667592159820    1.43036156029391
H           1.36165448361352   -2.02165091998479    2.77898892537218
O           1.66902424186910   -2.34328624309859   -0.94510940534814
H           1.94511300882267   -1.48459986895101   -0.55841174375757
H           1.36798106908172   -2.86217707924925   -0.18967718603553
O          -2.28859299287485   -1.80436034899750   -0.78598666951644
H          -3.07887352559090   -1.31069671394094   -1.01011249550322
H          -2.01449284172224   -1.49360997553037    0.13087644157419
O          -1.47022280046745   -0.91574964142043    1.49621032748835
H          -0.74299475867568   -1.50222462288060    1.77058677171016
H          -1.06022622217238   -0.02702105789892    1.44168060586201
O          -0.25233553237121   -1.20920519707866   -2.15221481987354
H          -1.11703384878744   -1.50755394149874   -1.66047299585377
H          -0.06674071491044   -0.22929787099333   -1.78041727774748
H           0.52017824050717   -1.77560643133256   -1.76943655999197
N          -0.39575449279732    3.74584535612462   -0.16791346729608
H          -0.71814481419786    3.10189578900389    0.54906100671014
H          -0.77230041247063    3.42806919588023   -1.05196311231648
H          -0.75417533416749    4.67186844764292    0.02775138032838
