    26
        -50.45674970  Gyration_radius:  2.5012151635 Dipole_moment: 1.714
 S          -0.67981065866302   -0.60753988108340    0.93320068132918
O          -0.75332822733173    0.84013469587452    1.00860869755749
O          -1.49214782507311   -1.14502686511378   -0.14763124351997
O           0.71493105262662   -1.05554504392323    0.81181302356455
O          -1.18737521530066   -1.20272821237346    2.27722906377586
H          -2.11726954892668   -0.86459792073940    2.29978857559089
O           2.73219396809842    0.57733528996082    1.36108712023680
H           3.37902634088551    0.03071367541172    1.80993827370362
H           1.91484562771587    0.03668743311121    1.30027959090198
O          -0.59069125987985   -1.07965071923513   -2.57775290308476
H          -1.01836125065979   -1.03646524472738   -1.68214642272838
H          -0.94944778398536   -1.86025503089286   -3.00411515261467
O           0.33287998033174    2.22949685919505   -0.92620470205860
H           0.38312757852618    3.11988309910202   -0.57384120775877
H          -0.10580820802638    1.69148872894517   -0.22341096166885
O           2.62791239257761    1.03008467915697   -1.23871254873445
H           2.85904039523368    0.97406950189572   -0.27808604740921
H           1.78384699471247    1.56245094471658   -1.25113746327157
O           1.72078718838799   -1.23802776065114   -1.51032803510117
H           1.35243008693480   -1.30976008807040   -0.56536027800585
H           0.88228835723477   -1.17062029095694   -2.08463188941005
H           2.19997482037719   -0.19832070483446   -1.48665456299350
N          -3.39947348892474    0.01444923254276    1.63478126883638
H          -4.35308307362615    0.26997727469005    1.86006403181854
H          -3.38703898369784   -0.46628791685979    0.74186893776704
H          -2.84944925954784    0.85805426485386    1.51135415327853
