    26
        -50.46455191  Gyration_radius:  2.42039196037 Dipole_moment: 4.945
 S           0.48275980173407    1.18478011358054    0.34505797038417
O           0.93943803176854   -0.15525944944210    0.73984654522589
O           0.63990311371046    1.36547183602285   -1.08929836799196
O          -0.88964289298205    1.40594891824932    0.78765507579925
O           1.36125888495929    2.21485490174944    1.09259826723183
H           2.26001643437085    2.07148509476951    0.68008691815074
O          -0.89461251849230   -0.72659162005557    2.59817652967258
H          -0.10887640432437   -0.58006059271761    2.03449369585649
H          -1.27441006714588    0.14996452283033    2.70779024428733
O           0.02580638613760   -2.10033241495829   -0.72461205777234
H           0.64983212422756   -2.82688532163553   -0.69777850470800
H           0.42495793432718   -1.37173058382133   -0.18016750214835
O          -1.06187444808116   -0.17364830474142   -2.36083072398977
H          -0.40259910925184    0.49251793126576   -2.05149332446834
H          -0.69385429076059   -1.02953969393883   -2.08662244907752
O          -2.29095850183663   -1.91152424590015    0.69461630489292
H          -1.87756922762829   -1.58292539320717    1.53452627397735
H          -1.54013704241872   -2.22851009777452    0.15716048355690
O          -2.70424525620738    0.23787454877040   -0.50324326864529
H          -2.16623374853358    0.08080297205122   -1.38787402198616
H          -2.66794871295568   -0.70269044700161    0.01020107517016
H          -2.06704321709123    0.83080067626155    0.04229311554850
N           3.37304655496482    1.47033514549009   -0.37833514334861
H           4.14597180617026    1.97719801875737   -0.78950672763450
H           2.64079232109871    1.35454246787973   -1.07398971588334
H           3.69622205423847    0.55312101751367   -0.10075069210176
