    26
        -50.45674981  Gyration_radius:  2.50109226709 Dipole_moment: 1.713
 S           0.10026138751042    1.15556754948245   -0.59713937705803
O           0.19751682424642    1.72504694521998    0.73821755884373
O           1.19714240774952    0.25129453211852   -0.89036484291994
O          -1.19491719199270    0.48704549217281   -0.78768804776447
O           0.12067035299371    2.31544813545957   -1.63277470346678
H           1.00837096775522    2.71632888297713   -1.45714773322101
O          -0.55358813836264    0.32020382042708    2.78380111048338
H          -0.89697658911988    0.95391710598152    3.41653234201491
H          -0.16250564524459    0.85643232151342    2.04458639362975
O           1.30557812573571   -2.01590332801443    0.41373963001151
H           1.93632578877318   -2.54043472412687   -0.08274792647218
H           1.27273791918403   -1.14026650587267   -0.04247789009634
O          -1.37448312922451   -1.79319650762687   -2.13120213704054
H          -1.20293863760875   -0.90043925479170   -1.76017164423518
H          -2.18171482420098   -1.71734271265682   -2.64240202788329
O          -1.16584382509453   -2.83885184106744    0.28485827236554
H          -0.20034226258219   -2.63710378835526    0.43773220568457
H          -1.29641306622708   -2.65642991626965   -0.67900754667938
O          -2.18914882003559   -0.78652150620617    1.16877907973755
H          -1.91810832970679   -0.19712747537220    0.38599440542637
H          -1.77096146581689   -1.80150979907720    0.84158288015277
H          -1.60233831923574   -0.45016535925392    1.93019204666739
N           2.47851360691517    2.77393219966366   -0.62399905948272
H           2.69584412186262    1.79822020217703   -0.79769585684868
H           2.05960073347674    2.81203897035473    0.29883443454585
H           3.33771799824936    3.30981659114342   -0.62003154639374
