    26
        -50.46455191  Gyration_radius:  2.42036910821 Dipole_moment: 4.945
 S           1.11737490008363    0.45664617358323    0.54668851266493
O           0.94440839922655   -0.54263391531191   -0.51709206915580
O           0.62169124735071    1.75029753343757    0.10456171200399
O           0.47755899985299    0.00573304469642    1.77779691889708
O           2.63105938891371    0.56061955888429    0.84594038636186
H           2.99102475051607    0.95656946699835    0.00208394825524
O           0.26233377294912   -2.66144840482950    0.96233332973932
H           0.61749024770228   -1.99793479121968    0.33767776875891
H           0.49746339738186   -2.31985368021306    1.82983026467079
O          -1.41336097636472   -0.57987045570139   -1.61354388365018
H          -1.33250500016030   -0.91037170557287   -2.50921604860891
H          -0.49199105173531   -0.55355353136762   -1.24347062167121
O          -1.99022515541920    1.65986589373832   -0.12250101443174
H          -2.03596916233439    1.01554461001703   -0.84771533243324
H          -1.03185080089556    1.88320978032372   -0.04669002578098
O          -2.26024219316213   -1.99167901680474    0.55604450314301
H          -1.38997696029458   -2.42737192034812    0.74881918474914
H          -2.15490764636284   -1.61406896353861   -0.33803280570504
O          -2.03300654214124    0.12082113680330    1.86416923338264
H          -2.23978733206526   -0.81740914768235    1.38813364219325
H          -1.01264650412717    0.10742820566232    1.98190410232651
H          -2.16504914501457    0.83742004168290    1.11199821897184
N           2.95219458021030    1.65603808570112   -1.49122398287506
H           2.03654275780698    2.04381165793353   -1.27965985643435
H           2.84461081708670    0.96757149122438   -2.22418183068835
H           3.55776519099430    2.39461885190413   -1.82465425468494
