    26
        -50.45986711  Gyration_radius:  2.50855073177 Dipole_moment: 4.047
 S           0.72791947248922    1.47990600984514   -0.11936543439664
O           1.25226140755971    0.58109751720113   -1.11727785332211
O          -0.41024472215422    2.25537929215565   -0.60987982246218
O           0.41898525711330    0.84697680099976    1.15207874372171
O           1.88415062834055    2.51658109720595    0.20550458839564
H           2.33858260237135    2.64544353923057   -0.62209123669237
O           2.54808883296009   -0.47863017168697    2.00447636118823
H           1.80557444041434    0.05241197439136    1.64992114661721
H           2.67632504318435   -0.18324830223865    2.90773227812933
O          -2.41026158230523   -0.96070414585671   -1.14918824939744
H          -2.14976314009516   -0.39631899086852   -1.91244825487082
H          -2.38236640493585   -0.01002906312890   -0.07240325150717
O           1.24298179368672   -2.80533337251738    1.52683454503935
H           1.75634999773459   -2.00056884698224    1.74785718825181
H           1.87926358153114   -3.44783806782709    1.20829306543692
O          -1.10279607112338    0.74330086197176   -2.74018519219847
H          -0.27332129262997    0.27330369813327   -2.87010748672051
H          -0.88971984975187    1.43032943404758   -2.08413215735247
O           0.01490952856561   -1.81032890760185   -0.69696071088461
H           0.35367237209639   -2.20948129856401    0.12831130023844
H          -1.58505793369284   -1.48219146752043   -0.96837687979082
H           0.55344040262375   -1.01684799350522   -0.85585167614895
N          -2.16513098462182    0.79979031849334    0.67409298198276
H          -1.33684691349820    0.52370740360046    1.22972436081707
H          -2.96139487711699    1.04601677618410    1.25176304712488
H          -1.78560159874229    1.60727590483328    0.13167856880321
