    26
        -50.45986799  Gyration_radius:  2.50821324371 Dipole_moment: 4.028
 S           0.46390002620708    0.26723367151756   -1.56155880734361
O           0.44148243214758   -1.11063549453632   -2.04902441757881
O          -0.85930454499116    0.79060379557853   -1.32887567251200
O           1.36871463648485    0.40585526758929   -0.43219469580009
O           1.10108136632984    1.15283687112760   -2.71342619779505
H           0.36803493922565    1.39453914092912   -3.27221684873539
O           0.07092122300277    2.25022684581122    2.59152858786101
H           0.57188228435264    2.55945742540000    1.80837903862036
H          -0.54649929620471    2.95141338433273    2.80654447098774
O          -1.24081486221718   -2.26049973393819    1.18940590326382
H           0.13053583556009   -2.26126118194422    0.76035920787038
H          -1.71265758538863   -2.32306743417382    0.32780866041807
O           1.38970530623245    2.94353117631090    0.32693246470259
H           1.36082927128690    2.02706044626350   -0.01669828990479
H           2.31810198061562    3.17883442733220    0.37404850386227
O          -2.06325741666772   -1.81005537903033   -1.31373057108943
H          -2.44810429503022   -0.93267163795859   -1.22549694858274
H          -1.19857564266601   -1.65275499103320   -1.73250818636137
O          -1.39400747203246    0.34191273628032    1.30478605650791
H          -1.36563041728642   -1.30839780877726    1.44095824604849
H          -0.85305223033132    0.94577995656657    1.85051031162400
H          -1.24534572620403    0.60550946071008    0.38100901960820
N           1.12849612577199   -2.11526884668598    0.26766473055872
H           1.44536304829992   -1.14578207664493    0.44411357554111
H           0.94885321520433   -2.08551297988414   -0.76027169434457
H           1.81934779832054   -2.80888704114580    0.53195357258087
