    26
        -50.45986798  Gyration_radius:  2.50830053366 Dipole_moment: 4.025
 S          -0.95102981745445    0.57185996362033   -1.22318336852453
O          -0.40714547905491   -0.21672917568363   -2.32722205192396
O          -1.72844940030157   -0.22568611931905   -0.30739874408320
O           0.08781579579845    1.36743466373721   -0.58977148534904
O          -1.95052281511435    1.62699173383409   -1.85949504759260
H          -2.78831228866271    1.17530824346926   -1.90540611827872
O           1.60955042821785   -2.33470843586882    0.13983271703366
H           1.95716669763520   -1.19614841459070   -0.66442019989916
H           0.88838854143988   -2.73662092504624   -0.39627760132896
O           0.27419523082086    1.27234093276631    3.17479533963190
H          -0.19175652919423    1.87997826064402    2.56356222042425
H          -0.30493285939186    1.15924475159108    3.93045090270786
O          -0.63331280408793   -2.69303420365863   -1.26907710908327
H          -0.60717593620363   -1.88166744601309   -1.80653082351658
H          -1.30111468260840   -2.51381347800327   -0.60001137357702
O          -1.00598007771293    2.80859584797595    1.34480452934909
H          -0.66508342381044    2.27233864161462    0.59973863984883
H          -0.70385985916468    3.70457862497777    1.18505832875716
O          -0.01646121295300   -0.98580929042878    1.67135851381963
H           0.19807550044742   -0.21101754335516    2.22699943261533
H          -0.70120432145718   -0.69070008501488    1.04770450224347
H           1.11624260666799   -1.90321060341688    0.88543828102843
N           2.00379406135719   -0.27976978346907   -1.31118945241364
H           1.25139165068627   -0.38502238353054   -2.02717588813720
H           2.91832298480287   -0.11178356402603   -1.71574148765813
H           1.65139800929205    0.52704977720477   -0.76684265609084
