    26
        -50.45986808  Gyration_radius:  2.5082615432 Dipole_moment: 4.024
 S           0.41489591395834    1.40382122169589    0.76319907633567
O           1.18751491455871    1.23402612892961   -0.44223766482414
O          -0.81347712046157    2.16292166623454    0.53692689610538
O           0.13916257207411    0.16689994031802    1.47562280848395
O           1.31042032182612    2.26104535449724    1.75339410309493
H           1.81444244694524    2.84090719433312    1.18972569257225
O           2.43127356453208   -1.09285199011551    1.89505906081704
H           1.62024001224178   -0.56812959515851    1.73449625059753
H           2.42891227462342   -1.30309668255953    2.83063146899293
O           1.69140169895711   -2.98658994516852    0.10212651718483
H           2.47067502219863   -3.26167220560841   -0.38389121254887
H           2.00344232897828   -2.35137110208954    0.77967732243421
O          -2.07517036736127   -0.53731449138724   -1.86286316322120
H          -2.32525160729854   -0.28977010759573   -0.46946672835913
H          -1.87523963055760    0.37022968771361   -2.18726422586188
O          -1.01894916812950    1.90208862762664   -2.14529763906485
H          -0.99991297806018    2.16939037290071   -1.20936403811986
H          -0.10426138718113    1.68418125652328   -2.34922793648868
O           0.43023242420452   -1.16474669124414   -1.48965735556468
H          -1.17852778720334   -0.96165325338257   -1.82737095518720
H           0.80646926701278   -0.34041434572154   -1.13775120577942
H           0.78717948059092   -1.88554887279466   -0.93454716536912
N          -2.33598009970149    0.03558403699916    0.60463477589085
H          -1.51319735169913   -0.37307695473090    1.08182410431234
H          -3.20748811330212   -0.16464290323037    1.08282379255037
H          -2.08880663174543    1.04978363302355    0.60879745108137
