    26
        -50.45793257  Gyration_radius:  2.46049042821 Dipole_moment: 5.058
 S           0.34150919816702    0.40234994256481    0.86729311667133
O           1.62248187107074    0.19578481682297    1.49133312064929
O           0.47833009788226    0.53499017821942   -0.60303087189867
O          -0.66797914149952   -0.58287106769037    1.19956650338866
O          -0.25280998807213    1.77921995493170    1.33453501915213
H           0.51509231884955    2.41298249028744    1.21003796760650
O           1.31983140840503   -2.51003534912122    1.29889674284117
H           0.39079913739061   -2.40669321088069    1.53361680241864
H           1.70647233490851   -1.64074064167142    1.49094819773592
O           0.98323743672125   -2.04024876193860   -1.32618967067638
H           1.18629297652974   -2.43297385113304   -0.45000130311838
H           1.00783667073586   -1.08083642867726   -1.17428103134599
O          -1.49140141031293   -2.18202376753949   -2.06396221849398
H          -1.48502502569694   -2.46791627150498   -2.97950631278404
H          -0.53935065193835   -2.25059822380639   -1.74264739531368
O          -2.85476111022708    0.64918441305807    0.56868238866312
H          -2.15123539055827    0.07590118031532    0.96223002596303
H          -2.67407465166297    1.52851499078429    0.91225827450349
O          -1.74135568462613    0.29225552555423   -1.68169882503173
H          -2.34686369381333    0.44906117317420   -0.86239514106248
H          -0.77175898784112    0.46116524277893   -1.29189111326339
H          -1.74027783612543   -0.74051996332858   -1.87278149674225
N           2.03303026446466    2.91116201398649    0.85335294223349
H           2.56180787369362    3.60861524078461    1.36133076759452
H           2.18900962684772    3.04673374380225   -0.13710030895178
H           2.38116237669758    1.98753664020161    1.10140381927083
