    26
        -50.45793257  Gyration_radius:  2.46050480131 Dipole_moment: 5.060
 S           0.52413161924349    0.35307826655170    0.79531711436133
O           1.68175189301282   -0.23326867911873    1.41906110648903
O           0.59716978906810    0.23933296891496   -0.68112004550247
O          -0.74924046846386   -0.13757892729141    1.28304110313345
O           0.50665608631581    1.89920206489090    1.07208345265660
H           1.44192363350652    2.18201322577745    0.84395873201394
O           0.40115445635980   -2.63527278752620    1.61980469767590
H           1.09056838318432   -1.95464867557608    1.67890766108921
H          -0.40745267400698   -2.16610450295477    1.85403200801489
O           0.07751447367710   -2.40854401574027   -1.03889266891246
H           0.18373036326947   -2.73501491537513   -0.11946012412275
H           0.46037825076180   -1.51557199376745   -1.02572143210751
O          -2.32329309654422   -1.71511216819387   -1.70506481678085
H          -2.48449966437679   -2.09547942636050   -2.57071601693306
H          -1.44199283581442   -2.09051393706874   -1.39410931934808
O          -2.37534176382142    1.72656329375354    0.52240775778371
H          -1.90330847660405    0.98799295577018    0.98087618198731
H          -1.86358127137663    2.51224739062099    0.73382348408417
O          -1.62746591106426    0.70271458139663   -1.67389866521850
H          -0.63843375502588    0.54790758934328   -1.32961541573746
H          -2.01600502464990   -0.27215590434321   -1.71617382504310
H          -2.07591912832991    1.17424014067723   -0.87447484953189
N           3.00801487866686    2.03250231224117    0.39112431704449
H           3.13226946745894    1.97427225369192   -0.61127512243734
H           3.01216130341651    1.08495920275617    0.76247839160221
H           3.78910947209636    2.54223966692889    0.78360633371908
