    26
        -50.46516750  Gyration_radius:  2.53880467392 Dipole_moment: 5.800
 S          -0.20696438490334   -0.38946345103797   -0.43662762331946
O          -0.99570555510389   -0.01996323590063    0.85989818702552
O           1.15043665089194    0.12122270978114   -0.26715817522997
O          -0.25256245984941   -1.81471222107329   -0.63800162247755
O          -0.91110342180499    0.37228254336559   -1.48091156993607
O          -1.34374042971284   -3.52601252556815    1.07950495681241
H          -2.26109528105693   -3.65500647130340    0.83605484231892
H          -0.94456249739624   -2.98805503732974    0.36402309273843
O           0.76621005811015    1.90517847148071   -2.94182339881077
H           0.12668767186997    1.29032916028326   -2.53060021906196
H           1.40127081433082    1.35487541759179   -3.40254491772364
O           1.99566860131957   -1.96336135219617    1.15550420431587
H           1.71125191984345   -2.68485090764312    0.58753533929026
H           1.85267242776682   -1.15473107027402    0.62746764390142
O           1.39162458000138    2.72728353412298   -0.46102240779800
H          -0.07042055280728    2.78155968978498   -0.16496526490405
H           1.51388585730307    1.77281592562828   -0.24719149581075
H           1.37606239207692    2.72496688568837   -1.43995771278700
O          -0.20106860758029   -1.63311479131258    2.61780235321144
H          -0.68124516255154   -2.43517666416650    2.33020966356624
H           0.72350590568596   -1.77291072095739    2.30477517837683
H          -0.68763362420528   -0.64779981775629    1.62300047365157
N          -1.13770078961615    2.51894945700474   -0.09360612710153
H          -1.35945147329143    2.18550548318959    0.84316326927697
H          -1.20401884706438    1.65791861227060   -0.73894092119133
H          -1.75200379225780    3.27227035632361   -0.38558775833244
