    26
        -50.45793249  Gyration_radius:  2.46041236113 Dipole_moment: 5.060
 S           0.88185468112368    0.49726027302131    0.07791114695870
O           0.33085154438526   -0.87701161942487    0.00238075366053
O           1.86198088608858    0.72111520579463   -0.95273844755691
O          -0.18720497369772    1.47429238777960    0.12921663424339
O           1.57623552264491    0.56760542017569    1.48516078717557
H           2.38125622444004   -0.02035665129261    1.37166521164858
O          -1.11384462200240    1.13858402458914    2.52206040158822
H          -0.83002367816300    1.47951634003694    1.63787932398587
H          -0.29836472642476    1.04854521686554    3.02282548447175
O          -0.06714166481867    1.67295136686502   -2.63214504550468
H          -0.47212699524647    2.12856180394449   -1.88573761060006
H           0.79689153929835    1.39052200088351   -2.29184505356082
O          -3.26779128272845   -0.50771609753015   -0.55343850434422
H          -2.55698692662340   -0.49777164154190   -1.26681223112414
H          -3.88406051325176   -1.19987558567668   -0.80083402874022
O          -1.27257067070787   -0.68841867912759   -2.18919970997176
H          -0.95679856876365    0.16083026276530   -2.56635885246419
H          -0.59936571278086   -0.92712938071641   -1.53043781148622
O          -1.73233852041077   -1.03393303588446    1.36927755840677
H          -0.83264940604366   -1.06025519401760    0.81223000052916
H          -1.61615804985691   -0.19087412588207    1.95088583004823
H          -2.45314555021969   -0.80948411792978    0.63909924217618
N           3.45896781356931   -0.99367723744869    0.61550274898292
H           4.46212634337679   -0.98168177084402    0.74777323916504
H           3.23665150094395   -0.53545528604872   -0.26557933067239
H           3.15375577586095   -1.95614387937104    0.55125826298047
