    26
        -50.45494471  Gyration_radius:  2.49515771592 Dipole_moment: 3.124
 S          -0.16454461432087    0.74042571404121    1.17637056695331
O          -0.86503866907114   -0.52852388912252    0.98910280236437
O           1.25958500243865    0.54305346236598    1.38184185883406
O          -0.42745712681646    1.63618296259016    0.04896969715995
O          -0.76225528465692    1.44178707276358    2.42822856389999
H          -0.54946069843297    0.78296447402566    3.13535082126685
O           2.39197668067993   -1.18708045480642   -0.19133912330525
H           1.94406663455011   -0.57233878316770    0.44307488554643
H           3.31057102109944   -0.91276014904098   -0.21424339739247
O          -1.49558633112082   -1.17722751496685   -1.40924588238638
H          -2.01222888076567   -1.98096912644890   -1.33655858729559
H          -1.26624104599501   -0.91534867232103   -0.47027839385033
O          -2.02997357040049    1.34050669428945   -2.31934704140854
H          -2.05206916658055    1.76233028355452   -1.45090761179791
H          -2.02785393312372    0.38300739438373   -2.12959905831007
O           0.99262985023124   -0.84834593210206   -2.37618906545339
H           1.57669516975086   -1.05791014528803   -1.59927728019788
H           0.09800342992526   -1.15867977600774   -2.12323487993951
O           0.50460869648291    1.57509472442291   -2.25705880379539
H          -0.46521267186298    1.58614322240049   -2.57438066053343
H           0.32861195597906    1.68302289563499   -1.24447966985735
H           0.81072161871138    0.52966823130276   -2.37546695342017
N           0.09493944795004   -0.68664101324626    3.66852579740779
H           1.04219747909599   -0.51611251091241    3.35015086326041
H          -0.36219974329279   -1.21962017219546    2.93580499789267
H           0.12551474962029   -1.24262900211700    4.51418557435505
