    26
        -50.46302216  Gyration_radius:  2.50638888699 Dipole_moment: 2.711
 S           1.69202954368021    1.15393709730772    0.08158853464446
O           2.16882985663766   -0.21605341915984    0.11798579089903
O           0.76259135470482    1.37575305617694   -1.02465836999787
O           1.18549900288115    1.64822138169967    1.34085980086370
O           2.97311202473582    2.03330247313877   -0.25459369606831
H           2.69504713215146    2.90938740759751   -0.00789501570766
O           0.16769874478614   -1.80105505881034    1.05854358985504
H           0.98513759383882   -1.33377655637996    0.81516603296493
H          -0.25959882686930   -1.22886377742832    1.71297478392981
O          -0.65627109670048    0.33253804714343    2.62971565361446
H           0.02185159820847    0.86288744967199    2.14179665660406
H          -0.54665799184970    0.55620255034130    3.55543433589000
O          -0.96592954573569   -1.97643852781801   -1.34923706035873
H           0.26121023561550   -1.47483545818491   -1.94542605741527
H          -0.66872951931271   -2.09089911990972   -0.41709288450720
O          -2.98547593096192    0.67491935281399    1.25214508095497
H          -2.17452527062853    0.61148612362543    1.79138020209860
H          -3.49428143552564   -0.11760187961936    1.43167225846862
O          -1.85445321613887    0.49236394109403   -1.22031125282181
H          -1.47670094536315   -1.12450063460155   -1.34983537553044
H          -2.34579906562317    0.66446883634555   -0.39370617274021
H          -1.01773261064059    0.97573166648917   -1.13955369536220
N           1.18185891981918   -0.89858173490260   -2.20213437007682
H           1.86597698662745   -1.03663039872529   -1.43870463226384
H           0.93019579880701    0.11025110593875   -2.06425813334927
H           1.55511666285035   -1.10221391382772   -3.12185601459967
