    26
        -50.46302205  Gyration_radius:  2.50634697771 Dipole_moment: 2.707
 S           0.23657409407920    1.39408617744968   -1.48341944479600
O           0.18713657387223    1.86655789941126   -0.10094394937325
O           1.31043553601706    0.44001943589973   -1.68857007481346
O          -1.05322581742692    0.96195893827938   -1.96954753066179
O           0.63403690605912    2.66349957233672   -2.35421546422192
H          -0.18736139749634    3.14039503050163   -2.41432621843227
O           1.38029041840410   -1.14953746773764    1.85255732233672
H           2.11804979413393   -0.05705820579701    1.24016045485036
H           1.09978051804654   -1.64009240072187    1.04569367760945
O           0.58411240265046   -1.93118205646399   -0.56989443340697
H          -0.36910520755313   -1.95742969526426   -0.74001465636872
H           0.91003175229401   -1.17943430515475   -1.09374589605537
O          -2.04346680951564   -1.33096695177208   -1.23014251342417
H          -2.63067471802170   -1.60879435138283   -1.93510947932685
H          -1.69894377436083   -0.44344269145451   -1.49985222212760
O          -2.81923014158001   -1.05356684761863    1.37028950915504
H          -2.61567529848212   -1.13796706112493    0.41956893994305
H          -2.73858327623816   -1.93240779186735    1.74491018528698
O          -0.67973230803398    0.45872760225086    2.11991464556816
H          -1.52652005725177    0.00607360130067    1.94025158416819
H           0.57707646792353   -0.63443721020013    2.12838334800847
H          -0.53287100437778    1.05801075591947    1.37187238586030
N           2.44588126437056    0.81997000575315    0.63265576407600
H           1.62099939821544    1.46701586408913    0.60404242058427
H           2.49510999260737    0.52020753733940   -0.35611497696128
H           3.29587470159585    1.25979459608010    0.96559662231569
