    26
        -50.46302213  Gyration_radius:  2.50637853269 Dipole_moment: 2.710
 S           1.04333599010363   -0.36178632212612    1.72665733739922
O           2.01166358326417   -0.52974612456656    0.65907875427322
O           0.32447488242824    0.90595356097975    1.61278355798906
O           0.15846674267291   -1.48728645764451    1.91874118103173
O           1.90535132880245   -0.24569149306048    3.05746159982414
H           1.26048964702882   -0.40801504546856    3.73829691817887
O          -1.20774110107384   -2.44761270021162   -0.08024738131142
H          -1.36944741538746   -3.37006186845215    0.12452589443049
H          -0.72061408487040   -2.07953970749034    0.69845860848182
O           0.17166752023311    1.44339388957656   -2.13253052920874
H           0.31228119843581    0.46883468737494   -2.16253852496863
H           1.18271229018953    1.81429657087634   -1.15609791231349
O           0.67480259744759   -1.12768000052456   -1.63364065260070
H          -0.05844982625832   -1.67161969407948   -1.30995513019141
H           1.26707285603569   -1.02746729864363   -0.86881896476149
O          -3.18216842292777   -0.64668981191314   -0.62684356074089
H          -3.35615113841167   -0.75159027104402   -1.56381705792814
H          -2.52801488329343   -1.33053765762637   -0.38833119152189
O          -1.63592631869895    1.56177515555831   -0.22956777451631
H          -2.29879590464078    0.84827726624486   -0.30534789387553
H          -1.09277247087163    1.34091684234127    0.54272780580005
H          -0.62731461465319    1.56682076892553   -1.55557335927599
N           1.82631063834819    1.91173854050797   -0.24951234604067
H           2.35426467827855    1.02912063285917   -0.13897242256062
H           1.17171925398379    1.85615549514891    0.56805661443799
H           2.41278298384097    2.73804104246426   -0.24499359005668
