    26
        -50.46302216  Gyration_radius:  2.50640913081 Dipole_moment: 2.710
 S           0.06246820574608    1.33326251246961    1.55579030988655
O           1.16766308695720    0.42404376856854    1.79528865518281
O           0.08132928306787    1.86371896419669    0.19377702813443
O          -1.23310460971976    0.81799872994585    1.93365101381237
O           0.33488316654599    2.58053920168443    2.50324659387958
H          -0.51283956121258    3.01237739738857    2.52840092080388
O           0.64176636905026   -1.92371013007733    0.52579995205460
H           0.89251804967813   -1.18261296411260    1.10344329728797
H          -0.31824260712125   -2.00349611516228    0.62721063396730
O           1.56162920395716   -0.99383417964677   -1.79840179257523
H           2.19788089665585    0.10323266934325   -1.08897551132323
H           1.25172241697441   -1.53409804786760   -1.03523940226824
O          -2.65967410475428   -1.12645078422209   -1.61032885109316
H          -2.50698757533099   -1.98278752860219   -2.01351168420576
H          -2.51811533340928   -1.24259236226164   -0.65172719781430
O          -2.05172047777881   -1.48168799634946    1.02492146643936
H          -2.67105735226747   -1.82052037521882    1.67346702727636
H          -1.77239531469877   -0.59249732475760    1.35731878789673
O          -0.55604431878010    0.52178754039025   -2.14297981157375
H          -0.49226542194297    1.09181611104790   -1.36114562418584
H           0.75370167355244   -0.50615416755738   -2.10853178673436
H          -1.38826256317180    0.02007463527987   -2.04322235606550
N           2.43719300889952    0.96618267873781   -0.42248372975905
H           3.28279077239319    1.46354315792319   -0.67605518051399
H           2.43650068532706    0.62324170962045    0.55327866600293
H           1.57866240143791    1.56862287919689   -0.42299140448444
