    26
        -50.45494465  Gyration_radius:  2.49510427489 Dipole_moment: 3.127
 S           0.49667600641694    1.09880790465182    0.71125675841116
O           1.37226166940009    0.31204005616641   -0.15494357309470
O          -0.44486512348435    1.89466396854181   -0.05646526957740
O          -0.18826600443262    0.22679404765927    1.66678274003988
O           1.38554988631050    2.04965701481090    1.56101158193576
H           1.81023092340793    2.59603714190126    0.85356580135800
O           0.82733325637235   -2.17831268950241   -0.42431996136651
H           1.05173003290318   -1.20978109873301   -0.30461081468351
H           1.53974132692271   -2.54780158688269   -0.94793027738142
O          -1.73796461632401   -1.75723777934409   -1.11505232106770
H          -0.80102698120679   -2.03475671743210   -1.03948437629192
H          -1.71755101955773   -0.87141680210519   -1.56615505608252
O          -1.57397098511487    0.67885538488163   -2.05603461071404
H          -1.09756291890796    1.15367131456465   -1.32905669731388
H          -2.39695912227135    1.15481298482615   -2.18159105761490
O          -0.07483245875141   -2.61032847446424    2.11577171499792
H           0.25591905137897   -1.78186641384651    2.48574291721610
H           0.34382717421273   -2.67350077373717    1.23626246085473
O          -2.10552020294671   -1.31386571751471    1.29202645542143
H          -1.47340581988746   -0.50892326845842    1.43513714080909
H          -2.05697842552490   -1.51727500405447    0.21652246677564
H          -1.51610046531520   -2.03607780563680    1.70712126341726
N           2.07737918010888    3.00574275034600   -0.76512054115281
H           2.22894693271355    2.04185570466540   -1.04417556315468
H           2.68348920502247    3.60818841707911   -1.30815561463885
H           1.11191948852938    3.22001742158941   -0.98810558706978
