    26
        -50.46302219  Gyration_radius:  2.50646406108 Dipole_moment: 2.707
 S           1.12553995740646    0.63947054520762    1.58906907970214
O           1.74195549340786   -0.28290553978607    0.63717672901601
O           0.66642179736538    1.85426935874403    0.94176536485299
O           0.14140703518025   -0.00365202863851    2.42848423173609
O           2.29870626045379    1.10016207392681    2.55804536554914
H           2.38603477085137    0.35773813112101    3.14698775769907
O          -2.21194564104562   -0.60140122144235    1.48575029034891
H          -1.31400237217902   -0.41002910042645    1.85481402415365
H          -2.80718675074441   -0.60986724828391    2.23714861551383
O          -0.19707856688461    0.37925793840970   -2.54487852098943
H          -0.87640145216806    0.72716417146224   -1.92214687018103
H           0.99157614674199    1.01633258525772   -2.00331683500012
O          -1.59390247191487    1.27974220792339   -0.45891124760116
H          -0.86478885637973    1.63041024921589    0.08071895485302
H          -2.02746337320834    0.62323992810920    0.10609997249663
O          -1.87589801100544   -2.71595943433144   -0.20399890587568
H          -2.01524821403100   -2.01086501353215    0.45620924071411
H          -2.57929561498460   -2.62724600101583   -0.84938944543501
O           0.46477749247578   -1.82378255668910   -1.27655725287106
H          -0.01320057650412   -0.54459486665280   -2.22950011682447
H           0.94977125172529   -1.45286214612456   -0.52323954573401
H          -0.31241611059130   -2.27915197255698   -0.89846709135556
N           1.82188364277583    1.38127438094305   -1.35265363446394
H           2.61275938852118    1.75763035602736   -1.86211724263241
H           2.06800678128994    0.57326313404030   -0.73095297116654
H           1.41998801348787    2.04236206914293   -0.66613994650907
