    26
        -50.46302222  Gyration_radius:  2.50650049499 Dipole_moment: 2.709
 S           1.72049861701575   -0.08650175573174    1.11117874501898
O           1.82881342241494    0.30624179426286   -0.29265580970471
O           0.83825574411497    0.79657275498641    1.85117844387220
O           1.43833419902646   -1.49376919836700    1.27460955354059
O           3.16459046290766    0.14916301305306    1.73294754754404
H           3.64848507760514   -0.61244352023233    1.43037009342754
O          -0.95703057864508   -2.41728478366214    0.83311660485198
H          -1.04403573428523   -3.20459555730593    1.37308531884856
H          -0.03364492308551   -2.09206956738922    0.97676637554714
O          -1.33712737825446   -2.37966120937122   -1.86784839730759
H          -2.28279515368432   -2.26871863612239   -1.97999638333087
H          -1.18049444797097   -2.46845752248518   -0.90868547836908
O          -1.59301354550122    1.75643641931810   -1.02104222073882
H          -0.38819020280474    2.37422981795669   -0.49130813853552
H          -1.86187333731123    1.21300792037895   -0.24473397088181
O          -1.73081974488021    0.22735178595590    1.16002374215799
H          -0.87485282269432    0.45009997245427    1.56432456852135
H          -1.70360612329897   -0.73278694288424    1.03484140630102
O          -0.08436532530911    0.00651679527243   -2.27175114916736
H           0.68249675520702   -0.02000599822799   -1.67889312050678
H          -0.46882255360265   -0.89133533986182   -2.25485790894970
H          -1.15634887484505    1.11474957492314   -1.64076493687278
N           0.61038514698875    2.58382370569794   -0.03936977113316
H           0.56916423712560    2.31716687775282    0.95932546426268
H           0.94469889026777    3.52786738555831   -0.19342494141328
H           1.25129822350308    1.84440221408338   -0.41643565695479
