    26
        -50.46302201  Gyration_radius:  2.50636671646 Dipole_moment: 2.711
 S           1.05672984931830    0.98152346026991    1.45616118505525
O           1.64448588584120   -0.22656193666668    0.88011536041725
O           0.78849218814999    1.98584410309371    0.44368371486517
O          -0.05794026935932    0.69549823991147    2.32931271456768
O           2.18976247961308    1.60963724662311    2.37765748920356
H           2.14952342232466    1.06560837647065    3.15748334543492
O          -1.39989754880085    1.21604145672965   -0.97781157185668
H          -1.94851102420284    0.79249503288123   -0.30114935469716
H          -0.68283047981145    1.64784806067974   -0.48273378793697
O           0.05389527008334   -0.37018157228624   -2.55392039421161
H          -0.63106920659422    0.20036429581425   -2.13486148608696
H           1.25828096928157    0.29761133385642   -2.08754582473075
O          -2.14257159400765   -2.49128449817341    0.37234560700328
H          -2.77615062426560   -2.53936353393334   -0.34559099310426
H          -2.25679705286999   -1.61401551791381    0.78436661131401
O          -2.37922220971239    0.04769279612215    1.34087968308914
H          -3.03088018050586    0.31126109014360    1.99268555391224
H          -1.49850590376344    0.26287065257370    1.73726526502383
O           0.36211770620195   -2.14884975462912   -0.64508856089725
H           0.82259352909450   -1.61462663779408    0.02038107279213
H          -0.48869325004281   -2.40769052851622   -0.24086922299399
H           0.10753437613024   -1.17212679592683   -1.97038106248162
N           2.06754342264227    0.76752339419022   -1.47964967723965
H           2.17327100190794    0.15889532813318   -0.63221594730462
H           1.68538768749407    1.63018315078455   -1.05532069609147
H           2.93345156582535    0.91380275755127   -1.98519902302096
