    26
        -50.45987758  Gyration_radius:  2.41930184525 Dipole_moment: 3.159
 S           0.22340913174373    0.09652433329144    1.03508347393922
O           0.94080149022292   -0.69213034250518    0.02118455884584
O          -0.54066948277741    1.15953494163944    0.37667703524672
O          -0.64011733614447   -0.75110497961762    1.84083399180492
O           1.25540572887388    0.73124263432788    1.97813943791985
H           2.06093749250357    1.08933875045219    1.44731264426022
O          -0.54684633519131   -2.80715331034784    0.08643463584768
H          -0.74498410048110   -2.74651574830723    1.02976591778027
H           0.14735945130131   -2.10976902438388   -0.03664663872123
O           1.50553684410749    1.32805392908812   -1.58157146879316
H           1.38238575720634    0.49055948394407   -1.08793879475101
H           0.84809370313157    1.92539055859225   -1.21004187515471
O          -1.24188378084210    0.32307162847659   -1.97809390940048
H          -1.00573077792197    0.71945231320592   -1.09699234228986
H          -0.41042612057758    0.25092269978550   -2.45760037203200
O          -2.99693127395596   -0.17730677866949    0.98091587432129
H          -2.16304189966490   -0.40141828749119    1.47398729554405
H          -2.86471248600265    0.73534111510875    0.70371744927272
O          -2.48518388624801   -1.63848523163455   -1.00359850237384
H          -2.85203804035515   -1.09049920550411   -0.18893386374957
H          -2.00883160232313   -0.91201764679865   -1.56230562078882
H          -1.71360885261348   -2.23543392737471   -0.60140575884704
N           3.27250047152433    1.60542848037182    0.62018211127478
H           4.03283610839876    0.93986994044633    0.65460769181092
H           3.62118393186859    2.51381161549549    0.89509100494403
H           2.92455585423179    1.65329202839087   -0.33880396593710
