    26
        -50.45593694  Gyration_radius:  2.49643180569 Dipole_moment: 3.351
 S           0.32125039535154    1.34050118529981    0.24662615710562
O           0.63631543025087    0.20307798383875    1.12295638276354
O           1.01279925966474    1.21067519658198   -1.02142076678736
O          -1.12164549410271    1.48231992996152    0.08250981923197
O           0.80598752042489    2.62496974871330    0.96789541427243
H           1.79457406749657    2.52167257895400    0.94808049022312
O           0.94230201550900   -2.12769411293298   -0.07059354292776
H           1.86028363447157   -2.35229802528793   -0.22539494798729
H           0.93813797243817   -1.24042209834618    0.35866974169157
O          -0.35003559752355   -0.82523501181272   -2.09791392425177
H           0.07643007510846   -1.49602654709261   -1.53582901818229
H           0.08561697596703    0.01459777550155   -1.85278417813179
O          -2.89892623357211   -1.03314445748998   -1.66321414355312
H          -3.33175508335781   -0.40753586420138   -2.24718706555289
H          -1.92159415847564   -0.98202124343442   -1.88365771374799
O          -1.12459997014846   -1.59314984947030    1.91889244494049
H          -0.44725465170417   -0.88186012238232    1.84494542179821
H          -0.78131167775141   -2.30972844415044    1.37234731910798
O          -2.83768043742221   -0.18495078578335    0.70456821048538
H          -2.96335963314545   -0.59473728536643   -0.24747032889549
H          -2.26644787901801   -0.84620010055506    1.25742224979878
H          -2.16808306470281    0.60223863826874    0.51691322630728
N           3.26945605108625    1.87325284437941    0.50804244188204
H           3.56950989494982    1.10221974602687    1.08937310054704
H           4.08443971392666    2.40265443989986    0.22745838749282
H           2.81559089427597    1.49682389086865   -0.32123515762181
