    26
        -50.46564192  Gyration_radius:  2.42053868318 Dipole_moment: 2.446
 S           1.07645155434513    0.46448767848852    0.55241624111540
O           1.58280582693447    0.59596785983751   -0.80316699789876
O          -0.24188043535510    1.10887744203695    0.67519491567886
O           1.00110146542567   -0.92778068924167    0.97927240546543
O           2.02910282134354    1.18834212813755    1.53081434709083
H           2.05897880649323    2.11050912518963    1.14371024743062
O          -1.26737220533977   -0.89484279364731    2.38775087973330
H          -0.36091464828671   -1.00241646144504    2.03883500988792
H          -1.41601289943403    0.05513429098212    2.37270176185545
O           0.05250813655922   -2.72929564579539   -0.65941236781284
H           0.52004707342526   -3.55859423958683   -0.55072115021429
H           0.47722663901554   -2.09062848768704   -0.03472748119598
O          -0.03777824770766   -0.64710323670492   -2.44714982956245
H           0.02114394958400   -1.55525359267343   -2.10480315921867
H           0.68078784481610   -0.15415479249858   -1.98433880652873
O          -2.39613950771204   -1.86068114910066    0.20193025167656
H          -1.66054068066737   -2.40548951840271   -0.13371765709599
H          -2.12898467526589   -1.60084350946807    1.12035574685033
O          -1.88964438277387    0.26266942128860   -1.01181233105695
H          -1.22006173742064   -0.07554145580699   -1.74336679583494
H          -2.23525229033761   -0.62622333780694   -0.52814711607887
H          -1.26873032465394    0.70877419408946   -0.31045380520438
N           1.74878195137431    3.29998713915832    0.04837868717002
H           0.79122602263436    3.60242239186095    0.17218695722290
H           1.76744061911004    2.63009300910152   -0.71519477958995
H           2.31570932388705    4.10158421970240   -0.19653520389010
