    26
        -50.46564190  Gyration_radius:  2.42065992998 Dipole_moment: 2.448
 S           0.60908104683806    0.64660452950709    0.94368430987107
O           1.23121285090034    0.32303676943775   -0.35115698044816
O          -0.42706291896607    1.65098519722273    0.77361521159075
O           0.10308949929535   -0.56460193976172    1.57863030706625
O           1.72379852536419    1.20607311770951    1.85644693661790
H           1.97865877754150    2.04688731535213    1.37754918965774
O           1.45857962074749   -2.43409990042991    0.23747378782368
H           1.02741417283002   -1.85349424973232    0.89470797510821
H           2.04129595639574   -1.84626362553571   -0.25209188309145
O          -0.73467382190778   -2.68935085989381   -1.21473235633546
H           0.11880764094850   -2.79597579999862   -0.72217103251439
H          -1.40499168705552   -2.51223040451050   -0.52930237642124
O          -2.18818547849765   -1.56158373901674    0.81230990789894
H          -1.35049111061976   -1.18086635726653    1.17527917908501
H          -2.65562189372765   -1.93714426966924    1.55970841528688
O          -2.31413350556886    0.68120511008681   -0.76692278662503
H          -1.72208391294375    1.19588905047445   -0.16854383391716
H          -2.60498084476180   -0.08027615067727   -0.23686975315431
O          -0.44472038394022   -0.36487860773780   -2.08161809678797
H          -0.57179172036408   -1.39865884155515   -1.84002486005778
H          -1.29340789428745    0.10689516668668   -1.68793023352156
H           0.31611207104349   -0.04798442612956   -1.45128897437413
N           1.87430528642249    3.22303256293707    0.23045278614419
H           0.86363128136394    3.12633580248546    0.19384352681591
H           2.25230494533882    2.85695737962321   -0.63373384322725
H           2.11385350759890    4.20350715039830    0.30268547749095
