    26
        -50.46407701  Gyration_radius:  2.36409325016 Dipole_moment: 3.025
 S           1.25741868477159    0.40489755499356    0.46419021180901
O           0.11130470514931    0.28206114001536    1.36704390200488
O           1.05377079281336   -0.43594802169532   -0.72594141219075
O           1.48334027060769    1.78348185915583    0.07814223686800
O           2.50877006406620   -0.12735832738510    1.19572957202094
H           2.21112218618872   -1.04749165726324    1.46648614007737
O          -1.91278745731958    1.64355528174716   -1.20473760953861
H          -1.08667136613094    1.53401694846484   -1.82383568364347
H          -1.57005898229674    2.24893359686033   -0.43209582003397
O           0.27825749852233    1.34534342782888   -2.43601020062452
H           0.83600426346765    2.08723953159190   -2.17932611671042
H           0.63282906439250    0.58965163397460   -1.90229897010726
O          -0.80310533437419    2.84760609328862    0.72369265292604
H          -0.99040247171875    2.31696400448363    1.50543658066985
H           0.13191116040867    2.61150427453877    0.49936257971021
O          -0.54964263229393   -2.48236683434755   -0.93630892446056
H           0.13172058875650   -1.77219857131446   -0.87231054343014
H          -0.57187584649131   -2.74567513733432   -1.85770322936825
O          -2.03199257195942   -0.47532108764501    0.10221240782154
H          -1.27792221014206   -0.22642257455766    0.69399716372575
H          -2.06662778945547    0.70110039597210   -0.72978654863762
H          -1.72613750213531   -1.29372307934554   -0.33953520792966
N           1.21193553058244   -2.30859651239472    1.78695226208593
H           0.44988256391438   -1.68895331129781    2.04365360177484
H           1.37274630979039   -2.96211959814359    2.54278064326755
H           0.91621048089112   -2.83018102018251    0.97021030192459
