    26
        -50.45987758  Gyration_radius:  2.41922883746 Dipole_moment: 3.159
 S           0.99340433101421   -0.21772569134946    0.31177238988002
O           0.78774831758036    0.41799048622280   -0.99243607532646
O          -0.19729866403556   -0.01210700559756    1.15105989599809
O           1.29146393790030   -1.63311163875766    0.16634764063544
O           2.19672559670667    0.43752006857264    1.00468814350989
H           1.93337001159202    1.34857401629752    1.40401409121812
O          -1.15469791826576   -2.41151255534753    1.01738822963365
H          -0.29383717928790   -2.84778772025708    0.97923767227319
H          -0.91433083410401   -1.46998414264692    1.21494295561527
O          -1.74762376268064    0.35249613490929   -1.54348657744845
H          -0.76564695053914    0.42462917910950   -1.40273399659389
H          -2.14346836343051    0.93973270433912   -0.89160567240911
O           0.56796926648380   -2.14259193638661   -2.25014915133313
H           0.71526959540293   -1.28457355154861   -2.66170103350971
H           0.98529860568535   -2.05262812822216   -1.35203506263257
O          -0.74288890580058    2.42697543436399    0.30022279604738
H          -0.20702637440609    2.36697020616908   -0.49748620712047
H          -0.66232789830720    1.54374438022861    0.71668828829583
O          -1.80004092664201   -2.16131727861731   -1.39768367423804
H          -0.86237294299043   -2.27682092647794   -1.85191121985562
H          -1.62765562880458   -2.34586710161256   -0.37321080987045
H          -1.95782968455998   -1.14329759418641   -1.47170489725269
N           1.50200767065639    2.71402018742995    2.01090761087450
H           1.31060737897871    2.61700662861606    2.99892479944047
H           0.62983905961904    2.94234253535608    1.53106826002762
H           2.16334227220204    3.46732331944684    1.87888158411094
