    26
        -50.46564185  Gyration_radius:  2.42039092807 Dipole_moment: 2.453
 S           1.26435149518855   -0.16402889769069   -0.23389554864381
O           0.66963020322384   -0.24835791922517    1.11064185137455
O           0.85344169796799   -1.29792223563970   -1.04443262392284
O           0.92648319673397    1.10990105976488   -0.85770674862541
O           2.79923009073480   -0.18861122925616   -0.05389350536131
H           2.94620437451132   -1.10086209160839    0.33007421650510
O           0.20317344982375    2.53631597606584    1.28091029310644
H           0.58407301811895    2.17996462251839    0.45452882466468
H           0.46060573545281    1.89988257909753    1.95430062044475
O          -2.27467002271619    1.92847471289839    0.59121383476233
H          -2.17626455723101    1.91905534702894   -0.37861597739802
H          -1.43491214257244    2.32814269859159    0.93396344126298
O          -1.42292382817513    1.41889365718409   -1.96040893599496
H          -0.50209766951516    1.32124136789353   -1.61237088620610
H          -1.35436050677091    1.96590609097435   -2.74409414859938
O          -1.75009276544742   -1.23686256963228   -1.34684352568346
H          -0.77838841987823   -1.40814552962602   -1.35429210626328
H          -1.85715034084650   -0.38441615875838   -1.80222081741300
O          -1.82359874286229   -0.48504545685499    1.05024558916553
H          -1.92849625334375   -0.89761745024302    0.09271058230348
H          -0.79472822007438   -0.43836150658877    1.17662531200402
H          -2.12026486679958    0.53613094809616    0.93988408427756
N           2.53360013396014   -2.61515486488549    0.82714925931335
H           3.09319262438411   -3.45827557745941    0.83011134667661
H           1.82712330369145   -2.68407288432680    0.10031712246171
H           2.05683898243449   -2.53617469832436    1.71609843578092
