    26
        -50.47291492  Gyration_radius:  2.43814698632 Dipole_moment: 3.489
 S          -0.89654554311925    0.85186848407957   -0.56841726946107
O          -0.93270376306123    0.97514984396395    0.90079407832852
O          -0.45641619328155   -0.50902523730598   -0.92177372606422
O          -2.33690078447440    1.03086410930180   -1.08942842007779
O          -0.05448203083524    1.85595155370390   -1.16173831583171
H           1.62276236164497    2.06573529439734   -0.79319339290021
O           1.41232225627025   -1.88488489704491    0.43144894869726
H           0.60209514855206   -1.55783970363547   -0.00917758443135
H           2.06035562170859   -1.95418983590334   -0.27686019409253
O           2.51037849266811    1.74436225132027   -0.52711971682332
H           2.08325535457136    1.07778524879539    0.81566396577172
H           2.64682367018324    0.98173709128757   -1.12154066240395
O          -2.62884631834185   -0.70977045360921    2.02051805824488
H          -1.97145371721479   -0.06301838605799    1.68105882524833
H          -3.31268826929573   -0.19507439712776    2.45214187530855
O           1.95705850887372   -0.41967208120701   -2.07160747893070
H           1.90246454589170   -0.16872837996134   -2.99481808537921
H           1.03413888739596   -0.40892575521210   -1.73855376285525
O          -2.98849351463819   -1.38786787371451   -0.54626136085486
H          -2.06976154277436   -1.58215998250285   -0.77922829581883
H          -3.00694448856087   -1.34900543752906    0.43418094550189
H          -2.76129441225366    0.13560194774207   -0.93641420061839
N           1.55188015765886    0.51219709046298    1.55961225469555
H           1.87226960959638    0.70292732668101    2.50239441729459
H           1.63091552764284   -0.50777032045824    1.30527008316064
H           0.52981042518977    0.76375249952148    1.43304901430368
