    26
        -50.46342155  Gyration_radius:  2.49353351743 Dipole_moment: 5.600
 S           0.98964476841824   -1.47588190112530    1.04642639090863
O           1.78806751604634   -0.30156442142206    1.31570600618532
O          -0.36068048591134   -1.39492140592168    1.60058264187901
O           0.95794393761803   -1.83388711861219   -0.36019448112307
O           1.68998770588261   -2.66838560130682    1.81715575904049
H           2.60901622904666   -2.45577038006099    1.69451361655627
O          -0.19402369668680    1.01498988963355    2.80878396362027
H           0.74716855477213    1.15592411224472    2.66142157783535
H          -0.33165287539022    0.08576333530526    2.55440030724541
O           0.98012913984697    0.97290135638556   -2.99401704994501
H           0.39738609274311    0.21433066585167   -2.81586193411717
H           0.44157103165373    1.65165637597913   -3.40416069727995
O          -1.19010131993707    2.12450771839397    0.58827624953874
H          -0.96404543125155    1.92625597633352    1.52555494373049
H          -1.74935948264439    0.84627305960815    0.16244566102876
O          -0.65069386130230   -1.12557190781760   -2.22621397139636
H           0.01115767399441   -1.39815451144086   -1.52847183594276
H          -0.72066482680690   -1.87789861619307   -2.81629565507040
O           1.21687361906809    1.74672252187209   -0.36182698536607
H          -0.30009475495877    2.14474503707109    0.14678129907897
H           1.53948568270711    1.01816896638704    0.19816055338607
H           1.32029367545990    1.46161210433590   -1.28669072789361
N          -2.02707127579836   -0.20792433813214   -0.04871628110271
H          -3.01800912886147   -0.36837987028844    0.09266763292932
H          -1.45268019804148   -0.77668766463499    0.63003682470070
H          -1.72964825912719   -0.47882336271366   -1.00046379852886
