    26
        -50.47291481  Gyration_radius:  2.438475204 Dipole_moment: 3.484
 S          -1.12857551640562    0.75013489026912   -0.11314355275120
O          -0.42652460062512   -0.13701709997558   -1.05694213354406
O          -0.13018979140959    1.44746449868386    0.71874416917438
O          -1.87836295974729    1.81591028794389   -0.93765578139867
O          -2.07592475898370    0.02815558729561    0.69337686710806
H          -1.65136264194961   -1.20509774250615    1.83058414101549
O           1.78992119766828   -1.52823493024880   -0.45293204207292
H           1.11171369837686   -0.93302502136813   -0.83161558807703
H           1.42283802943147   -2.41134625322862   -0.56108922340974
O           1.49862995195749    2.96417746237310   -0.70113142857517
H           0.94126115461362    2.41594379240517   -0.10572826660733
H           1.35827320593003    3.87462249269643   -0.43612560995389
O          -1.09259276584178   -1.94069441871356    2.16006450572372
H          -1.01222849100153   -2.51443484175109    1.37400252719167
H           0.26090843031790   -1.16716429659864    2.17594433677883
O          -0.92193956910108   -2.69370725961607   -0.44361842618270
H          -1.77826544291084   -2.97775582909503   -0.76661296951027
H          -0.84081578009184   -1.75038186820227   -0.70100499101447
O          -0.01142807754773    1.98446039572547   -2.68536119741087
H           0.10247754485288    1.04007119648506   -2.50835072489994
H          -1.25460155566969    2.01582536520092   -1.69667133503924
H           0.68272966256208    2.43515336352582   -2.15791848671122
N           1.08743546473772   -0.53555433496354    1.90494664989110
H           1.57661317742404   -0.98002535892892    1.08367322948759
H           1.71609961313358   -0.35577792645835    2.67978614476065
H           0.65391081027750    0.35829785904635    1.53477919603003
