    26
        -50.45593703  Gyration_radius:  2.4963178675 Dipole_moment: 3.354
 S           0.09600143999387    1.33289469755107    0.41993406584304
O          -0.19644847958137    0.17681007857573    1.27949738000202
O           1.42463501350482    1.21815519954637   -0.14978939876902
O          -0.93551267487801    1.49290038984088   -0.59951610794273
O           0.02645113882842    2.59918809139171    1.31257739205547
H           0.81483475890343    2.48523960826680    1.90751996692474
O           0.78893913186069   -2.13587709873911    0.48436087109968
H           0.51778814110334   -1.25618694751562    0.83658513841189
H           1.60609943054423   -2.36749623810986    0.92681134740875
O           1.02745462216914   -0.78388574281095   -1.88058911391444
H           1.01573482090155   -1.46895517725586   -1.18900020082667
H           1.21534587589921    0.04679868605139   -1.40111204252993
O          -1.24239878137278   -0.97200387212247   -3.12214181930975
H          -0.33872572757415   -0.92755175215031   -2.68871626856298
H          -1.22214076465575   -0.33119375463071   -3.83531365452326
O          -2.06698562916111   -1.61482026503876    0.77664109363819
H          -1.45708615175007   -2.32530197829800    0.54592059736756
H          -1.49148438123667   -0.90948206584892    1.15276577913437
O          -2.66338866381699   -0.16683823618169   -1.20835732021180
H          -2.17109803805659   -0.55817153378675   -2.04174668463609
H          -2.55553900539701   -0.84400038342690   -0.43444474800702
H          -2.02363759966392    0.61663034235200   -0.92456531092519
N           2.24597982508845    1.82746568969687    2.46266950095088
H           2.40467111466170    1.47138737832628    1.52277135551477
H           2.12197644253770    1.04258182697906    3.08793321139805
H           3.05853416114930    2.35171308734096    2.75930497042473
