    26
        -50.46841935  Gyration_radius:  2.46104372962 Dipole_moment: 4.824
 S           0.34977115066997   -1.31007034566110    1.51622263299858
O          -0.65183354903959   -1.37534986011974    0.46221424274081
O           1.39190894425256   -2.29697401807601    1.40001598143766
O           0.83531616709953    0.05389288197503    1.69027566864771
O          -0.41432229732370   -1.65437060737713    2.87696772315664
H           0.04320241968614   -2.42692169757937    3.19284297695239
O          -1.61960494656342    2.26744859248038   -0.35105110106170
H          -2.31492698245678    2.92566063407454   -0.36438268397268
H          -1.79747722349402    1.68245243043191    0.43375786835961
O           1.68955180476181   -2.17048409390978   -1.24003424886988
H           1.71434389743307   -2.24253743147847   -0.26639932442538
H           0.89001646734508   -2.63091308654970   -1.50552729150623
O           1.32438533407540    0.21658633358853   -2.38838725968119
H           1.26897489058066    1.13440434247536   -1.21234661061003
H           1.65273914064292   -0.64457152662509   -2.04912218985161
O          -1.90424778843928    0.60692846615888    1.66617555644700
H          -1.63306232525369   -0.21847762586947    1.21625532559543
H          -1.22372666544075    0.73213269920711    2.33385971008448
O          -1.26135294854638   -0.12033943524246   -1.89535014032361
H          -1.12073415306716   -0.68857923563396   -1.11875371201898
H          -1.56705947086196    0.72561695606884   -1.54121331687536
H           0.35323856263555    0.07610260565831   -2.48258307831239
N           1.06531647038733    1.72484465090726   -0.31347874909250
H           1.03259882159327    1.05432378226042    0.50642301385102
H           0.12447583649454    2.14410389425579   -0.40377560074862
H           1.77250847263280    2.43509069479648   -0.16260538261027
