    26
        -50.46342171  Gyration_radius:  2.49383057744 Dipole_moment: 5.631
 S          -0.59865439943211    1.91924536137612   -0.46278100495081
O          -0.68282892005566    1.88705714744155    0.97972770750243
O           0.76604916443966    1.76855093574211   -0.96436282646786
O          -1.50111898949912    0.98204490082909   -1.10727643439123
O          -1.04798513469022    3.37372252812257   -0.89719550228422
H          -1.76525810989687    3.53593262201055   -0.29381936934436
O          -2.16712367428938   -2.40638264602089    0.61159369165166
H          -1.86063261722202   -2.13984276428681   -0.27263906488081
H          -1.78935451838437   -3.26861726827527    0.79268242967379
O           2.08466429004663    1.63757066030054    1.38917798790653
H           1.33221459286030    1.83492952418641    1.95689805689149
H           1.75397736595432    1.82407093109268    0.49305498232477
O          -1.14623471262996   -1.46563297748209   -1.78047486952629
H          -1.32655898269198   -0.52204961518355   -1.50364723652359
H          -1.66776193998602   -1.60045990593202   -2.57352992746971
O           1.89862970419776   -1.02801878234424    1.27325489493780
H           2.20767271420495   -0.10920033842928    1.44422390059358
H           1.67662274329636   -0.98106254056459   -0.16708121057284
O          -0.58356770694295   -0.62388340446170    1.98896057736356
H           0.97847086137379   -1.02457940830065    1.64872243593665
H          -0.72948343650410    0.28953658500991    1.68399564428399
H          -1.28391354694699   -1.17086218217841    1.59181240509179
N           1.43704276858676   -0.75885642834143   -1.22863679994233
H           1.22090839618066    0.27406975769529   -1.24337742799775
H           0.57764394272455   -1.25339200092766   -1.51926156884653
H           2.21658013543298   -0.97389070094096   -1.84002148138975
