    26
        -50.47291491  Gyration_radius:  2.43812381464 Dipole_moment: 3.488
 S           0.03031323383688    0.64706898056728    1.19712624041788
O          -0.02500621161551   -0.78130831481767    0.84032153848009
O          -0.76462063450798    1.41402574514027    0.21989651335281
O          -0.63647556774910    0.81344872675123    2.57762393592734
O           1.38445391172221    1.12712769017386    1.26889509907173
H           2.46890099995542    1.19575913968411   -0.07744345521298
O           2.38449949952054   -1.61568219487719    0.03222071899927
H           2.96550381425124   -1.79589620797192    0.77264326580564
H           1.54143970710401   -1.30429018918625    0.42602715343415
O           2.82239099903613    0.88293958954080   -0.93716616725911
H           2.93368442246953   -0.07516768757819   -0.78474007907212
H           1.48803225246636    0.96377478961565   -1.73894347378261
O          -0.01567786613559   -1.70298464019375   -1.68291190782805
H          -0.21382884244439   -1.47566114338016   -0.75198746186513
H           0.81536190619862   -2.18678882238887   -1.64099484342081
O          -3.30895314303889    0.71012088509927    0.20331041871494
H          -3.82564937523237    1.46886529080627    0.47936045374198
H          -2.37819981252491    1.01934625185726    0.14202725481098
O          -2.41670517223314   -0.96599196522563    2.09349682465248
H          -1.39998905742250    0.16413358334203    2.55611860801137
H          -2.96123727008721   -0.49365950374584    1.42757367754849
H          -1.70903638859828   -1.39378811546208    1.59121190652852
N           0.45556123391883    0.88493693225160   -2.02785690787927
H          -0.10149804761324    1.22051847681337   -1.19054272048256
H           0.22831135781408   -0.13904940924202   -2.13294067301904
H           0.23842406089521    1.41820209241007   -2.86232589968578
