    26
        -50.47291488  Gyration_radius:  2.43809397407 Dipole_moment: 3.487
 S          -0.16076745470793    1.17364209399784   -0.66968623951215
O           0.32089038560123    1.42794128865049    0.70085796175800
O          -0.91811684612141   -0.08994484879041   -0.68214385725499
O          -1.13439095446976    2.30986880422715   -1.04246053834708
O           0.92331369462629    1.15487718644223   -1.61501710281457
H           2.28034357291510    0.08592297337704   -1.52348900013569
O           0.40704475503536   -1.93538645940593   -2.09434961296272
H          -0.09878439587323   -1.21053607960455   -1.66840060210057
H           0.28242776554818   -1.81897791701404   -3.03735370829401
O           2.71826385900450   -0.75940189535912   -1.28758540967769
H           2.10816996323592   -1.42500798106583   -1.65946817785114
H           2.35615538803518   -0.75118448074126    0.22862609268082
O          -0.25691295446729   -2.25496793568088    0.76393350941638
H          -0.68923193388416   -1.48041531388800    0.35066489558395
H          -0.07999961157549   -2.85217394130966    0.03014927210458
O          -1.65034241987412    1.68118490156621    2.43840438077430
H          -0.86373365188659    1.58806252758908    1.85678281818352
H          -1.62030127289561    2.57298066904380    2.78869044507698
O          -3.09189294776850    1.24360956672325    0.22284268339201
H          -1.99356828300821    2.04649183792453   -0.59806993753179
H          -2.68725288435215    0.41016617624026   -0.05595102714021
H          -2.79747834468277    1.38027803016086    1.14900149000105
N           1.82454425128481   -0.65800635362177    1.15834216232261
H           1.28965020990651    0.25484031939889    1.09088369106713
H           2.43745680099579   -0.67601901888122    1.96574773109709
H           1.09451332938045   -1.41784414998066    1.18904807015081
