    26
        -50.46814494  Gyration_radius:  2.4849430188 Dipole_moment: 4.350
 S          -1.38387746775436    0.06745926084323   -0.16837343136042
O          -2.29644104229887   -0.57410491490417    0.88646911619642
O          -2.20676265009709    0.75324801466169   -1.13159973023771
O          -0.48106165700997    1.00308022161156    0.54118546320059
O          -0.57343719239365   -0.98620404710922   -0.79348417820563
O           0.88323404703856   -2.45595960282862    0.80279659878942
H           0.65242309837305   -3.37557205775092    0.66073774323109
H           0.29510786619170   -1.93178276802427    0.20614207746051
O           1.98386927630945   -0.90309986200781   -1.54217163526097
H           1.01683528927015   -1.04500953916581   -1.46179484555978
H           2.35635729360564   -1.37015690419823   -0.78758253378138
O           0.09814546138760    1.10580998210536    3.13138119544866
H          -0.06870639861748    1.15911729061374    2.16723507318751
H          -0.56264963712810    1.66189365123795    3.54748647105544
O          -0.71554093462165    1.56751825178172   -3.09169195045015
H          -1.38619991404508    1.33335522327976   -2.39804880566891
H           0.56367918809547    1.71708483527522   -2.12594647750878
H          -0.72021321762593    0.83253854407820   -3.70828709930766
O          -0.73141178537888   -1.42163480905883    2.71422743454389
H          -0.35287888524874   -0.58803521354920    3.06350418579888
H          -1.71309408732440   -0.94067506583606    1.63488185224500
H          -0.01379557864015   -1.85031073804974    2.20732237153463
N           1.21681044530824    1.61881106980513   -1.29804470726824
H           1.76410023971453    0.72925780382238   -1.41971520694501
H           0.56730366899996    1.46009165392782   -0.46061120775123
H           1.80820456388117    2.43327971944227   -1.17601777338957
