    26
        -50.45296541  Gyration_radius:  2.61660564498 Dipole_moment: 2.350
 S          -0.22093037094990    1.26730886952655   -0.15992067525281
O           1.22255370598055    1.14393153444304   -0.00275329433064
O          -0.65802885338622    1.06393148241324   -1.52295303946364
O          -0.91988435705712    0.36915832171100    0.77443154032110
O          -0.62411305480355    2.70438511032447    0.28993134171754
H          -0.13810011912733    3.25557005435402   -0.37037727605577
O           2.47988184188681   -0.67813991759374    1.30945620761265
H           3.17087849338527   -0.20732837495900    1.77952691283078
H           2.05978078196543   -0.01151810942294    0.69884718248273
O          -0.74117030947034   -1.43160184909421   -2.41513240908445
H          -0.63976562596946   -0.50147892034179   -2.11561554473555
H          -1.25191068071864   -1.38986411983041   -3.22565183599544
O          -2.05945195068327   -1.91825873477148   -0.12602289867185
H          -1.86620623640112   -1.01643798859134    0.18757059828110
H          -1.61930068661830   -1.95838368306889   -1.00090561209452
O          -0.77314314873245   -3.18904294268237    1.69958699048414
H          -1.43677319719687   -3.54780309256405    2.29165657093172
H          -1.27977508255579   -2.79633745031259    0.91595363333909
O           0.26067024969470   -1.03085390587142    2.46109348340942
H           1.22275557792739   -0.98773307608901    2.08812279051069
H          -0.25827884813459   -0.37399048138753    1.83219208933898
H          -0.12418773355772   -1.97766271978876    2.20680460673566
N           0.89850452482519    3.41870619281825   -1.70575801596551
H           1.30630182921475    4.14422899750434   -2.28276880508091
H           0.34817929915038    2.79987003263530   -2.29200308975231
H           1.64151394140343    2.84934478061995   -1.31531143150112
