    26
        -50.45593692  Gyration_radius:  2.49646888527 Dipole_moment: 3.351
 S           0.04013098443172    1.37250430960157    0.27393436219786
O           0.76154689376718    0.92427533425100    1.44938437756426
O           0.56631000809918    0.71840927370173   -0.93281035527282
O          -1.39913989352179    1.16257157064880    0.38972412405859
O           0.24471554962303    2.89943120820839    0.09584440008505
H           1.23393698291708    2.98935344882494    0.13761023923443
O           1.35400676533196   -1.78102326926380   -0.64455138089583
H           1.16450360135768   -0.81701840077351   -0.72398042540718
H           2.30051131520189   -1.86474925497473   -0.52526535387837
O          -0.14658293855917   -1.58631413848142    1.63293469476839
H           0.39890438341954   -1.90907460646711    0.89398562820669
H           0.10685659207737   -0.64790770393399    1.73463620653701
O          -0.80595237314450   -0.96594016733066   -2.42963989947677
H          -0.31729043791009   -1.75196057749892   -2.15866984561248
H          -0.28542246234062   -0.21458710058362   -2.06261685915880
O          -2.60655285526570   -2.10936506161930    0.99718408950736
H          -1.65677846535610   -1.95454393317690    1.28062187093923
H          -3.14875547451681   -1.83710626275812    1.73991707774808
O          -2.75121703156534   -0.45902397830202   -0.89623302899836
H          -2.06589245307528   -0.74845715054529   -1.61438093304620
H          -2.77817171798315   -1.20468286838652   -0.16592864390723
H          -2.25198488098847    0.31829335438601   -0.39640213095902
N           2.81555558635317    2.52366652423147    0.40375061348534
H           2.45900030725213    1.78965632707587    1.01161091145501
H           3.50986011531902    3.06092181161936    0.90623881400870
H           3.25790191907988    2.09267132154787   -0.39689853318255
