    26
        -50.47050259  Gyration_radius:  2.3841860443 Dipole_moment: 5.660
 S          -0.05421683267078   -1.47863059916924    0.48452179785707
O           0.62773808535599   -0.30562652612158    1.09286600788724
O          -1.22163417863318   -0.99781974232161   -0.25827559531109
O           0.84308712655101   -2.25893368686536   -0.31136610822549
O          -0.57023380406740   -2.34961267369483    1.65976171108369
H          -1.01670812116050   -1.70155919924016    2.24806298423303
O          -2.52713656789762    1.05026296628188    0.64545653665327
H          -3.44027748765775    1.02709641638356    0.35614742465373
H          -2.10262630572111    0.22903249553015    0.27925093153186
O          -0.43972246605126    0.38674553640815   -2.43023519286272
H          -0.19774664566411    1.33873728251317   -1.31268610636131
H          -0.90488502001753   -0.28021993957914   -1.89233019292502
O          -1.35981016631544   -0.15382810080011    2.87368004798421
H          -0.48105179526351    0.06058453956784    2.52473451591304
H          -1.98346025730154    0.34973881581358    2.32729023161177
O           2.94249953610645    0.37330402810617   -0.09330061970086
H           3.68906174262091   -0.16350268195407    0.17754105509223
H           2.17668046602744    0.04356385101563    0.41483739556396
O           1.87646432927066   -0.81116496431062   -2.33883311881301
H           2.42432305219788   -0.26141892551596   -1.75223937014494
H           1.55969813880827   -1.53094552806865   -1.76242775984052
H           0.44826864120476   -0.02638182663107   -2.60993787030054
N          -0.08640678673617    1.80355241511660   -0.32100664250265
H           0.53118463581047    2.60793901564046   -0.32619543359486
H           0.29485965297757    1.03103233064447    0.29032645373544
H          -1.02794898177384    2.01805471124867    0.03435688678027
