    26
        -50.47050260  Gyration_radius:  2.38431589726 Dipole_moment: 5.661
 S          -0.92820540023938   -0.35424133297210    1.19742243105271
O          -0.20032941460010   -1.25515257349291    0.26498866753142
O          -0.17518863715281    0.89715630965559    1.31018899480406
O          -2.28845158852781   -0.16394152969500    0.79627096474884
O          -0.90650264574747   -1.04364706382161    2.58683401790700
H           0.03513405402594   -1.29953795109895    2.70144143519058
O           1.61877735224021   -1.65906137839090    2.18265118461302
H           1.18116411535392   -1.85299765969374    1.33963604986968
H           2.15728440281784   -0.86923172047712    2.01734773253642
O           2.41243843946637    0.82317249568781    1.18940717908316
H           1.42792402454167    0.91032435731011    1.29854594453642
H           2.79667757834294    1.56619509187551    1.65669380410968
O          -1.36839284843793   -1.53244852949645   -2.14025465055571
H          -1.02233543916360   -1.53520442153386   -1.22719640494001
H          -2.09540357008855   -2.15715719187155   -2.14794195314825
O          -0.29934819157379    2.26690810943819   -1.00363416583595
H          -0.36644444523687    2.08007847529711   -0.04907135298047
H           0.67687317199302    1.18391915653966   -1.30040636817278
O          -2.45558671544758    0.94982648818803   -1.65480876029986
H          -2.63115120236406    0.65145105409136   -0.74337539795621
H          -1.16422453859999    1.94077675105647   -1.37409055399989
H          -2.13655895051396    0.15037064632929   -2.10828363317067
N           1.31116189615043    0.28558211641637   -1.25113960227189
H           1.58279056334092   -0.05954506939652   -2.16525933076383
H           0.72404144092775   -0.42286689678675   -0.73216454901920
H           2.11385653849142    0.49927227683940   -0.64380167287069
