    26
        -50.45593703  Gyration_radius:  2.49634568686 Dipole_moment: 3.354
 S           0.30754355017071    1.23053447571857    0.59391390247173
O           1.33799329344308    0.44418384959795    1.24418524450549
O           0.28202472256616    0.95193374377898   -0.84920933645755
O          -1.01002493997114    1.01972272729956    1.18426061037830
O           0.62570872822141    2.73863240798393    0.76581096250041
H           1.56756374941808    2.79575311858829    0.45248539115581
O           0.24756198570219   -1.99424520081362    1.08094181149382
H           0.63640046893463   -1.13152533029112    1.32539602874523
H           0.44812822645195   -2.09402130381371    0.13354309683956
O           0.79940659900259   -1.53454461582589   -1.55750268424275
H           0.71698055926830   -0.58686288233217   -1.29955274138559
H           1.70758750743985   -1.66522911676025   -1.83183338974232
O          -1.73390651441943   -0.19504257577360   -2.10710232833679
H          -1.02677494277303    0.40656922207097   -1.77814805738054
H          -1.28368657081903   -1.03382555374591   -2.26112902510157
O          -2.32228386536188   -2.26564727922288    1.30761927538331
H          -2.52497635068861   -2.21423806088439    2.24353183646229
H          -1.32245184979777   -2.21694054428621    1.24122423772841
O          -2.92406048310180   -0.12931388835834    0.12266260790305
H          -2.78199498681900   -1.05628253358180    0.58155221562110
H          -2.18587543279649    0.45851604352462    0.58445903959004
H          -2.58221909936084   -0.20591818812655   -0.85015201885471
N           3.06714830583374    2.24556856975205   -0.03465052235706
H           2.86170841131709    1.37150925834007    0.44410681614328
H           3.95737243417366    2.59927075479618    0.29013872464387
H           3.13512651398144    2.06144289234642   -1.02655171769965
