    26
        -50.47050264  Gyration_radius:  2.3841948788 Dipole_moment: 5.662
 S          -1.53988339199036    0.02172569317343    0.22704462274147
O          -0.73559746834930    0.61592868490422   -0.87337385465384
O          -0.82680749768482   -1.15231388739175    0.73586591215542
O          -1.84361035988954    0.98475320699526    1.24080374167401
O          -2.86529573235041   -0.47185380731708   -0.40986777844048
H          -2.56792152905889   -0.97249947504843   -1.20132551647724
O           0.54491712503403   -2.60169940609883   -0.91735991532237
H          -0.00783924328831   -2.11925166663980   -0.24621294539235
H           0.61792383054340   -3.50301924319013   -0.60064796508560
O           0.49703128136066    2.91653112809152   -0.23042805526117
H          -0.05646162492398    2.15854044808018   -0.49966412489510
H          -0.07306655021510    3.68614873152220   -0.27051079570639
O          -1.47931409294636   -1.42450419049192   -2.43202015914384
H          -1.09488405805208   -0.55098959814203   -2.26093246810338
H          -0.81093270187005   -2.06234319352533   -2.13619510112400
O           1.41387609552597   -0.39767042214695    2.02278275405943
H           0.55805664713614   -0.83609365488966    1.86191403068470
H           1.77488672017925   -0.24233268447713    0.58743977140451
O           0.39922714428670    1.98274609599665    2.35806899026829
H          -0.51477968206342    1.69436417902943    2.17889677004152
H           1.16219787337098    0.51780155046671    2.32285600898804
H           0.65084619756059    2.48113380274352    1.56134183501588
N           1.75123653413757   -0.18544760850506   -0.51158273916915
H           1.74405762891406   -1.14737523138371   -0.87689268918717
H           2.49838743051769    0.38223635837046   -0.89626675521235
H           0.80374941412430    0.22548419987367   -0.73373357385629
