    26
        -50.46258604  Gyration_radius:  2.4094679715 Dipole_moment: 2.829
 S           0.32672651286213    1.58230477766394    0.72599651990755
O          -0.04258664281917    0.71015049884206    1.82398762116641
O           1.47848314203931    1.10178441089361   -0.01243278278003
O          -0.80467367119163    1.88765772208923   -0.13923894560058
O           0.76879417181098    2.95298047041675    1.38093902763016
H           0.00662927707234    3.13710733716880    1.91806994557570
O          -2.86901692827620    0.14606612695148   -0.48068892605613
H          -2.75373497621184    0.04595191080747   -1.43065538205990
H          -2.28131157620794    0.88217867915387   -0.23344424756241
O          -1.03367388769726    0.95635541309264   -2.61592882863953
H          -0.82877631403500    1.62298111940851   -3.27272619268610
H          -0.92163199258003    1.38734270979564   -1.73948826697030
O           0.95477533336502   -0.71354959042253   -1.89697036643606
H           1.29600400872656   -0.01559817634179   -1.30146568074038
H           0.18153190249153   -0.30324375123551   -2.33054359495474
O           0.55033301108109   -2.42043758285741   -0.06716483388232
H           0.67025967145094   -1.84212512904382   -0.90729329494980
H           1.28897062647557   -1.99959577546858    0.61738755249085
O          -1.42530402647288   -1.43054286199518    1.10631804288501
H          -0.34848590058338   -2.11472358784620    0.37711378087750
H          -0.96484265248851   -0.66214198359103    1.50916817169997
H          -2.10778580860259   -1.02646068715392    0.52579217357429
N           2.10125188421142   -1.16608609488208    1.46915113100469
H           3.06747580593311   -1.41701326192952    1.63220603221206
H           1.63158979490354   -1.03758542667656    2.35751720341239
H           2.05899925472329   -0.26375725683953    0.98439416087835
