    26
        -50.46258603  Gyration_radius:  2.4094387086 Dipole_moment: 2.831
 S           0.91514989173706    1.20554507781698    0.91935202508259
O           0.61576004117799    0.13828524124756    1.85412585026715
O           1.66833053290480    0.75068209543518   -0.23340205922093
O          -0.27323215567832    1.96149847143811    0.54797834296086
O           1.86139955216924    2.21311715062891    1.68893105397568
H           1.33908891098936    2.37528606865184    2.46622256823802
O          -0.15714944046088   -2.35304290837434   -0.77882480401446
H           0.81586898514278   -2.30116864579159   -0.28552872966027
H          -0.10173541431408   -1.58830709536116   -1.46216008846411
O          -2.74974784706935    0.83140353617509    0.50003925579921
H          -1.94180430344931    1.33458028076057    0.70584267792249
H          -2.91064260523357    0.99338293400396   -0.43465429880389
O           0.21592221800409   -0.29584309291379   -2.21185819860389
H          -0.50264446215555    0.36290131559609   -2.27463080337465
H           0.87135946732634    0.11808418416934   -1.61400661188093
O          -1.36667319247171    1.85806063256778   -1.87018524872512
H          -0.92356228416940    1.98333715923875   -1.00162800843610
H          -1.16397852828703    2.63608215823582   -2.39112574674182
O          -1.42947611800881   -1.38842192768637    1.14811840664609
H          -2.10199909699966   -0.70861532103339    0.92100484482425
H          -0.79784320666811   -2.02382906614133   -0.01796006693260
H          -0.69239346694427   -0.87583429346758    1.54635292007188
N           2.00889349326623   -1.92625808640288    0.43081053429854
H           2.09266771713733   -0.93175810290358    0.19633169795621
H           2.88001058160468   -2.39699758392136    0.22418740338800
H           1.82843070046999   -1.97217019197931    1.42666708340801
