    26
        -50.46258606  Gyration_radius:  2.40946732373 Dipole_moment: 2.833
 S           1.02881042771113    0.94018461813220    1.09313117551672
O           1.80305040454214    0.38428653572346    0.00024059151793
O          -0.00787181553894    1.84905989902830    0.64402705896879
O           0.51202572866215   -0.08440946932670    1.99034534894212
O           2.03900834534083    1.80981534232058    1.94534000851956
H           1.43784486712444    2.21145663194734    2.56236691714399
O           0.31572202436578   -2.64440413946089    1.31152718807389
H           0.46894705769757   -1.72164023008123    1.61403491842326
H           1.00713227902731   -3.17661233364640    1.70707056326185
O           0.73489009897746   -1.74915524675511   -1.19487134500297
H           0.46480473454980   -2.27340710374548   -0.41610945313850
H           1.28270814314886   -1.02851940347836   -0.82224418938980
O          -0.97775335255953   -0.22232844908921   -2.27217801466224
H          -0.36303137646005   -0.95777202501415   -1.90322799219843
H          -0.30177507635267    0.63125163291849   -2.35630396668549
O          -2.04909878056080   -0.99275149020057    1.82042685258411
H          -1.21132574164376   -0.56146290707097    2.06620465056244
H          -1.81334713822698   -1.90896546443489    1.64492031972466
O          -2.18912221187274    0.65556312718918   -0.26625057054647
H          -2.35972521840994    0.00486354354944    0.45030540089628
H          -1.46548126860494    1.21869916464859    0.08575747163652
H          -1.59454720886079    0.07348135727477   -1.47839878718702
N           0.63701310275088    1.70507052988900   -2.14902789995339
H           0.15455280869817    2.49677643513931   -1.74068233360346
H           1.20736016961402    2.02046640741210   -2.92256370443836
H           1.23920898691794    1.32045303716386   -1.41384022898794
