    26
        -50.46545158  Gyration_radius:  2.43018236574 Dipole_moment: 6.501
 S           1.78929944808814    0.36275185232100   -0.42317166421344
O           1.06753222316301    1.63966644771989   -0.48288737290952
O           2.23429887415022    0.08853613463783    0.93001299421004
O           1.03972784357866   -0.70745670031885   -1.02822973996974
O           3.09216634391072    0.55805610117668   -1.29323885218017
H           3.62862204628103    1.10726617129936   -0.73190109272236
O           0.36524579826076   -0.17528583736427    2.71061715302765
H           0.74022465941474   -0.15788000494191    3.59228572764549
H           1.12750777264281   -0.07872051281936    2.08213850430250
O          -0.62140318024331    1.14111752483752   -2.52437637033229
H          -0.26884755488080    0.33031070712563   -2.89933840415211
H           0.03646404391036    1.42378519146391   -1.86358162058946
O          -2.53715070466428    0.28818172936339   -0.83386008620406
H          -1.78538715658219    0.85927888440662    0.29105600892722
H          -2.05947233374690    0.70135661419478   -1.58569795579966
O           0.24707784016364   -2.47379299747747    1.03033528373654
H           0.77800664539872   -1.97833772423544    0.39049922479757
H           0.16684019616147   -1.89895916512407    1.80040651587109
O          -1.39275643981341   -2.06437377967497   -1.12400378431457
H          -1.16595273023815   -2.52237921372167   -0.29916657306279
H          -2.28921899239255   -0.66893984821338   -0.90305238157844
H          -0.54933144587770   -1.67313758111847   -1.39405496539949
N          -1.09588298204578    1.36074623057502    0.99630060237571
H          -1.51708802097489    2.20953788238136    1.35893738342883
H          -0.23191847065684    1.58774121819626    0.43599640825185
H          -0.79860373299024    0.74093065533428    1.76797507685673
