    26
        -50.46516745  Gyration_radius:  2.53910802889 Dipole_moment: 5.793
 S          -0.24798040843612   -0.56833424711173   -0.01190843099275
O           0.44265639350472   -1.38639096059763   -1.02204568498878
O          -0.77492532987535    0.64921413054119   -0.62185251588670
O          -1.23807682692038   -1.29814646169298    0.73712935462122
O           0.91126934425796   -0.13342188439407    0.94031729334132
O          -1.16323762200277   -1.63853093890493    3.37298322077214
H          -0.70201128375209   -2.45707796166023    3.55930542093215
H          -1.27547476423166   -1.60385549053903    2.39992915763208
O          -0.08295702507065   -0.56668768011068   -3.54170792639714
H           0.05506876613982   -0.98305832471486   -2.66770328528752
H          -1.01884552018814   -0.65297491965821   -3.72938197466380
O          -2.34378144139045    1.26819426752797    1.43704878682292
H          -2.80375022392245    0.43301484842637    1.55933930055127
H          -1.85346175537010    1.16633474993648    0.59902291139873
O           0.76516812728543    1.73658225313112   -2.44778820263869
H           1.87944470690270    0.96855613940107   -1.81766293240354
H           0.49116466040281    1.11124685314429   -3.14951680755223
H           0.09945030689787    1.56874957110974   -1.74047716008017
O          -0.20918138364042    0.84779838354834    2.96668156888371
H          -0.50985272361174    0.02476544461405    3.40102532269923
H           0.49880944141820    0.29674191523271    1.78654848487794
H          -1.02052839815184    1.21392319286211    2.54248433029966
N           2.44674091416022    0.19577556926041   -1.27542561359527
H           3.28827100215768   -0.09415851047839   -1.76316282262470
H           1.72388356763121   -0.59945662628831   -1.18985554307468
H           2.64213749579563    0.50119668741424   -0.32332624264478
