    26
        -50.46545099  Gyration_radius:  2.43037327528 Dipole_moment: 6.497
 S           0.91744389067156   -0.44122571164710    1.57426846400787
O           2.16546884980373   -0.64998194736535    0.86477304008338
O           0.59650512560408    0.98920840022858    1.64971947778089
O          -0.18745659270987   -1.21373986970557    1.06830593652148
O           1.16389838508228   -0.91166966597773    3.06103362905292
H           2.02248872534527   -0.54657383650935    3.24579922568960
O           2.21263039973287    0.12722282347281   -1.61078522128292
H           3.11200216105330    0.13148151150165   -1.94149669377910
H           2.26378195639966   -0.18385981190937   -0.66956412772966
O           0.54027931068924   -2.17725132186910   -1.48768794518188
H           1.14391289665775   -1.50163227193160   -1.81792436793580
H           0.49309389344907   -2.03857287263969   -0.53103471342981
O          -2.23658099285487    1.12710042816911   -0.97569905282360
H          -2.41462149960705    1.19450750207311   -0.01237132387989
H          -0.82424522289901    1.52768968715441   -1.00308781313332
O          -2.09679577695582    0.87874545145326    1.70246860335838
H          -1.13320366639313    0.98037582414326    1.80493729169416
H          -2.26926058259383   -0.05320471638445    1.85677248837705
O          -2.06225112945137   -1.49907418875489   -0.97309700694472
H          -1.37598343803601   -1.87414118451635   -1.54744927486644
H          -1.64756366438394   -1.51831688067731   -0.09836552993770
H          -2.27249539717216    0.15152826282186   -1.14719172152297
N           0.22715393299736    1.82217193133603   -0.82321032578965
H           0.41536655187583    1.59864567229397    0.19000978996708
H           0.35105451415062    2.81405846624315   -0.99690996605720
H           0.89537736948863    1.26650833895471   -1.38221283221092
