    26
        -50.45198919  Gyration_radius:  2.60469993093 Dipole_moment: 2.754
 S           0.63473836841942   -0.31249007429948    0.07146384572553
O           1.66845250059782   -0.89874429981560   -0.85069559877729
O           1.15597200944217    0.83170526056019    0.78481772350657
O          -0.57847701142426   -0.01639432883747   -0.66220170258142
O           0.36274956169326   -1.44495869718012    1.06865681634255
O          -2.42836312315186    0.27382339705785    1.33628429562914
H          -1.90587184513407    0.33742150289222    0.52070867562069
H          -2.72451821037895   -0.66110533445078    1.36302063190643
O          -0.26414439470639    1.15110207625420   -3.03352070746657
H          -0.75788086496763    0.63560532558900   -3.67373900519086
H          -0.50002705748076    0.79645184489398   -2.15160876890155
O           2.70222923830890    2.48204250339746   -0.61494816306755
H           3.54390332001166    2.52372518553911   -0.15735066294690
H           2.09232199218415    1.98884778469862   -0.02763561908792
O           2.28794801937024    0.75727709098936   -2.54915132864412
H           1.39367103058058    0.99276086306067   -2.90765709011027
H           2.55046277397295    1.51572084320923   -1.96523533477935
H           1.99653716328196   -0.18558802910706   -1.66070723936330
O          -0.37741067768656    0.05848517122099    2.91598546263013
H          -1.26556965298966    0.24412226148467    2.49137868964862
H           0.08293252688086   -0.94126492687475    1.93884681526265
H           0.20388760253850    0.77518551796954    2.63182054683753
N          -2.55716433465134   -2.46890349208253    1.29526921555190
H          -1.56573870349624   -2.50457264393285    1.08130871957104
H          -3.05098968524283   -2.98470736377630    0.57801979975466
H          -2.69965051596455   -2.94554745845539    2.17686998293583
