    26
        -50.46342172  Gyration_radius:  2.49375876955 Dipole_moment: 5.617
 S          -1.81182171889481   -0.71203418247468    0.67904017711063
O          -0.96529266497432   -0.81397514135422    1.84598822182485
O          -2.03400543657632    0.66634355825638    0.24625795488742
O          -1.36402552482893   -1.54228259101426   -0.42464036396036
O          -3.23427348009229   -1.24895201178188    1.12037611729012
H          -2.99264686769392   -1.97492036643538    1.68555373170175
O          -0.64737270696613    1.95743881075465    2.17120699482128
H          -1.29521972596794    1.62834567993273    1.52379435252622
H          -0.45340952251372    1.18596256503294    2.71393705252043
O           1.48419524143023    1.94370735239521    0.55608846418288
H           0.81277124101717    2.19033565004281    1.23245311707915
H           0.63664388610653    1.73991270791998   -0.61318855713135
O           0.24473635499343   -1.02337068585599   -2.35168571126093
H          -0.36367838925066   -1.26714107733728   -1.59696923993130
H          -0.07453152562648   -1.52240073724534   -3.10543780101445
O           2.41717196515891   -2.02727469226974   -0.96372503869427
H           1.68471154158590   -1.72203274604842   -1.52682121226364
H           3.21494277465611   -1.60386903092454   -1.28507052278363
O           1.66539615861859   -0.57137764953565    1.24993519477638
H           1.91934215584348   -1.23187762939135    0.58166011527119
H           1.73505957463578    1.01953723342878    0.82108649104016
H           0.74879530419694   -0.77049713580515    1.51198272565623
N          -0.13858975382703    1.50102643123871   -1.37168927520823
H          -0.98564774858548    1.21900510419007   -0.80870521259791
H           0.14150617877813    0.67939847863344   -1.93213970301079
H          -0.34475730110624    2.30099209566230   -1.95928807281093
