    26
        -50.46516752  Gyration_radius:  2.53907658285 Dipole_moment: 5.796
 S          -0.33354899069417   -0.52099061956221   -0.04256984425935
O           0.46796258936025   -1.56904701264196   -0.69516042942708
O           0.53673659867004   -0.13321621543936    1.19521496728832
O          -0.40918185096809    0.66199336682275   -0.89494242506829
O          -1.62446326027230   -0.97998791311025    0.40106628085685
O          -2.39084245656635    1.79703485703177    0.47233130024883
H          -1.69459800714678    1.50357563695318   -0.14597911252649
H          -3.01467733655025    1.06667602296608    0.50959775368178
O           0.90350186990669   -1.04618684438206   -3.30951198133477
H           0.07115881588584   -1.01442195815393   -3.78355203418939
H           0.68641904563681   -1.35020077586587   -2.40582711416011
O          -2.43141877242537   -0.94693959868952    2.93432521870109
H          -2.22988354907532   -1.03586168898686    1.97930622772131
H          -2.21042587534315   -1.78938196145080    3.33309906520241
O           1.79318894476594    1.23509324560443   -2.20263434906466
H           2.49481907614539    0.40607894987154   -1.17799918027860
H           1.63557146082881    0.56443666629672   -2.89834438110122
H           0.92333990460729    1.27178884432846   -1.74052492790044
O          -0.94910224694280    1.28380795533058    2.64767624480441
H          -1.51795546778475    0.58549892780173    3.02896275294419
H          -0.02793935447135    0.47012651312372    1.81812394747114
H          -1.50641698881902    1.70327725291813    1.95074448620327
N           2.71243588796997   -0.35780015416962   -0.41526214574727
H           2.66062247247415    0.04711014042184    0.51816843432091
H           3.59267027762065   -0.83745439767942   -0.57428689558618
H           1.86202720319842   -1.01500924933419   -0.50202186879338
