    26
        -50.45468007  Gyration_radius:  2.51504960578 Dipole_moment: 2.466
 S           0.31821876215960    0.82514068768548   -0.71010067944378
O           0.60157734635976    0.71883220962991    0.70649031022001
O           1.46263336945884    0.46436199319248   -1.52752216950380
O          -0.86954141892015    0.03270882081811   -1.07877397568376
O          -0.08939106037906    2.29897249056294   -1.01954767868281
H           0.73292763656564    2.79244486741829   -0.75619674097042
O          -2.83435143849635    1.04466003382876    0.42636717706067
H          -2.20573063796490    0.68761771766275   -0.23016536289945
H          -2.74521366560524    1.99789187159915    0.37598803314046
O           1.91423839060378   -2.06022909136499   -1.14808608255712
H           1.83407295578671   -1.07373611572191   -1.25374599930874
H           2.30548121007064   -2.38142088239402   -1.96367550515162
O          -1.30634115767820   -0.26254219407588    2.26258107912587
H          -0.50484266651510    0.10176564589601    1.83271028920410
H          -2.04148520602993    0.17686367502746    1.79331889009338
O          -1.30414013088082   -2.71148802269828    1.51877644193903
H          -2.22196656814517   -2.98499531770320    1.57803038579414
H          -1.26918024069342   -1.76294246928049    1.88814920061568
O          -0.57870505020263   -2.43326244608022   -0.85188692448362
H           0.44583165781463   -2.44826600831968   -0.92091200674379
H          -0.85980791902064   -2.61198609815293    0.16251285326201
H          -0.79053940632334   -1.42874401008055   -1.01067519862845
N           2.28015715994661    2.86875193345467   -0.12033631380231
H           2.05642136258440    2.23588830884294    0.64187166883091
H           2.89890537604765    3.59393126078974    0.22129695850159
H           2.77077133944437    2.31978114946769   -0.81646864992711
