    26
        -50.46342125  Gyration_radius:  2.49434667945 Dipole_moment: 5.657
 S           1.39172279293600   -1.17894689683688   -0.96405384532709
O           1.06638616852597   -0.08172382453618   -1.87318363375373
O           2.08537598121363   -0.74530921886356    0.22740925317691
O           0.22119646531330   -1.98941373659279   -0.67843680718742
O           2.40956690680277   -2.09482276397721   -1.75857731754863
H           2.80909208428520   -2.58874250709304   -1.05058509678979
O          -1.84962550096948   -1.15435266797429    2.47344798897743
H          -2.49168680729302   -0.54481195279104    2.84127461354878
H          -2.05445935225895   -1.24885226874599    1.52686668957222
O           2.20403827684908    1.95921289457066   -0.51805330548492
H           1.89618771817336    1.30327146813799   -1.16777045571208
H           2.62783251875343    1.42606431040952    0.16282567857968
O          -0.15715250197706    2.41924106351689    0.65054396470615
H          -0.85670799167738    1.70470787808011   -0.41021541715989
H           0.73421740674238    2.52642931598871    0.24664874915763
O          -2.20973449142442   -1.28994939613452   -0.26529811808031
H          -1.26531132310374   -1.59266313233090   -0.39194228884325
H          -2.75179744824969   -2.00123441648192   -0.61077317946330
O           0.44305004034867    0.32434839074855    2.09607585529304
H           1.06832764964362   -0.14132872784413    1.51225954949451
H          -0.00493475176074    1.71838603435013    1.33838792122101
H          -0.25782742823566   -0.31118142038792    2.32451579886895
N          -1.21444874933286    1.06239191580629   -1.24296080514081
H          -1.67879514815951    1.60676026886363   -1.96113181272771
H          -1.82243533549091    0.30737234427650   -0.88525874367081
H          -0.34207715966634    0.60514705585170   -1.62201525571580
