    26
        -50.46341997  Gyration_radius:  2.4948466233 Dipole_moment: 5.685
 S           0.82489904332115    0.03790636553740   -1.89241596981682
O          -0.62013216106286   -0.09515065254198   -2.06591098173021
O           1.21511229660189    1.30488659564117   -1.31690069428407
O           1.37754590533081   -1.10306541534907   -1.18407704706362
O           1.42699561858651    0.01200260787735   -3.35616883739341
H           2.29421937683431    0.37412165094612   -3.20901297661979
O          -1.38714792236577    2.35392809577174   -1.22241803081058
H          -0.50432547601938    2.72597285419170   -1.12431163540269
H          -1.23398821981409    1.51298665702956   -1.68762585572284
O          -1.73617281436839    1.33724830822321    1.22646367890109
H          -1.82573168730162   -0.01347319781624    0.68640963990466
H          -1.82076017869424    1.87243748326015    0.40451761805575
O           1.76605355299701   -0.80882028456781    2.66157054171594
H           1.29001034078144   -0.83680768212868    3.49311944555507
H           1.33049560674547   -1.43875870919647    2.06116518067276
O           0.44221141569603   -2.39348182317765    0.82309815540338
H           0.74012972292879   -3.29848933843021    0.71673695729739
H           0.84838671594249   -1.89076538837024    0.06016017642234
O           0.87233326670305    1.45005183621744    1.36510611509766
H           1.11485621607454    1.42690514568423    0.42200058014348
H          -0.77315276807835    1.43195964945220    1.45330581095200
H           1.35421787886746    0.72394526313344    1.79858809378800
N          -1.78506423681891   -0.96946847910904    0.12188440067184
H          -1.11412912974101   -1.62261685470558    0.55873021897514
H          -1.39257398944157   -0.70692488328856   -0.82191272943407
H          -2.70428836372255   -1.38652980426903    0.02789814472443
