    26
        -50.45468006  Gyration_radius:  2.51493122736 Dipole_moment: 2.464
 S           0.57026735698199    0.97749898004572   -0.07787464897379
O           1.04740549118153   -0.35332084901956   -0.39363782547384
O           0.23820593780731    1.73855963432777   -1.26887593160530
O          -0.56893894572762    0.92924903352669    0.85725062546444
O           1.68827712074115    1.72439382908124    0.71341167798150
H           2.43013350898778    1.73146243883904    0.05108762581837
O           0.39157940115335   -0.33957525135747    3.00609677976348
H          -0.00756566314280    0.21884082507394    2.31139628644724
H           1.25524907330442    0.03998070195297    3.17639856460150
O           0.24320372156346   -2.34028547200507    1.16492342855729
H           0.29082000456024   -1.82921828144457    1.99576896718684
H           0.61720731989870   -1.73099475919364    0.49496634145846
O          -1.79016773518227    0.57237951777849   -2.38546940698561
H          -0.95854439189234    0.99823829757616   -2.04224124605801
H          -2.27227224316474    1.26598010508663   -2.84142038362724
O          -2.22821460517310   -2.47593824190698    0.51401653426225
H          -2.68076170216970   -2.71934450435331    1.32438505498799
H          -1.23318279750577   -2.49562183978606    0.73084956003845
O          -2.63935339314825   -0.09000962041723   -0.08720767571973
H          -2.42347111223238    0.07586564017900   -1.07739849217370
H          -2.50987880341742   -1.12838771692287    0.12581775847084
H          -1.84273659654467    0.37751896231221    0.38808773778477
N           3.10765232671803    1.32415579097430   -1.42514538201151
H           4.03590600394033    1.31481913030228   -1.82976977266814
H           2.48754358376924    1.84005335573928   -2.03834831880977
H           2.75163710869630    0.37370026362285   -1.38706786870457
