    26
        -50.45468010  Gyration_radius:  2.51493674313 Dipole_moment: 2.466
 S           0.57658135369332    0.65823640546521    0.72136515253896
O           2.00580688858443    0.40278869720806    0.70923682493114
O           0.07220768331776    1.01162592494332   -0.58979660682062
O          -0.16301546624924   -0.48445721182918    1.28868576237443
O           0.27407788081878    1.83720403660619    1.69736028433281
H           0.78663576947898    2.57930344537330    1.27829998417585
O           2.39574868775620   -1.72065258082721   -0.72597140066839
H           3.18530126352498   -2.13514437112539   -0.37068522548648
H           2.30199920398353   -0.85442869267023   -0.24463076718150
O          -2.28166440895145    0.02193230229581   -1.29972452678503
H          -1.40779748036350    0.45329063250148   -1.19879714484440
H          -2.68883509661731    0.11289232576708   -0.41673479452640
O          -1.68004680815795   -2.44829188521360   -1.59385448625845
H          -2.46247071777459   -2.92542237649574   -1.30952975151149
H          -1.92607101323664   -1.46043847837765   -1.56206042211505
O          -2.70329425845321    0.34675906945269    1.37095997903904
H          -1.79493428316839    0.00308181476379    1.47334269653907
H          -2.68020939287612    1.24112206789806    1.71539794059941
O           0.16720946238161   -2.63586386283915    0.07226223862418
H          -0.01086176250346   -1.80150219754140    0.66499729552244
H          -0.59351996634488   -2.60330003829069   -0.67624372891497
H           1.06916430869158   -2.40169766280057   -0.35939429543708
N           1.74743643495367    3.22204586379431    0.06651604623076
H           2.57619009300181    2.65360967759077    0.19594327720030
H           2.02795822775138    4.14682300032283   -0.23599648999584
H           1.20640339675242    2.78048409403896   -0.67094783157388
