    26
        -50.45468004  Gyration_radius:  2.51517705847 Dipole_moment: 2.464
 S           0.98174475529939    0.45912279156312   -0.33587763155988
O           0.88079763790060    1.15126310527095   -1.60816655616206
O           0.05273120151984    0.97969926929913    0.64613833983061
O           0.81819336856702   -0.99631530254100   -0.50785245132729
O           2.42900550466115    0.62183358063708    0.22343451489823
H           2.49329366630940    1.60906178082842    0.32496381455978
O           1.24711220860150   -2.00687827869065    1.93026876673432
H           1.17972032030566   -1.73472296366537    0.99476365210977
H           2.02093516756923   -1.55721390731785    2.27390938191120
O          -1.45868820992954    0.61998696619552   -2.59080375097842
H          -1.35722431248784    0.66026234166043   -3.54446191657052
H          -0.58983961121713    0.92243538168312   -2.21075437489514
O          -2.71727338180655   -1.91605322737383    0.55075957902273
H          -2.16699970440655   -1.42160758279569    1.25088618870446
H          -2.76048385852820   -2.82867644331975    0.84399030650842
O          -1.15992838746037   -0.76855873747014    2.22652066843892
H          -0.81222402414272   -0.00429259934533    1.72160845967342
H          -0.38190288208433   -1.34887893559320    2.33439336931529
O          -1.35316349309425   -1.68086980101956   -1.52464782457217
H          -0.41082459445691   -1.49952685199331   -1.12678674779306
H          -1.99146384635179   -1.77959222360516   -0.67433071071743
H          -1.56055785703484   -0.79160415944836   -1.99456706436273
N           1.85253039180041    3.15456271604039    0.25520296919758
H           0.97582369897607    2.86851436106230    0.68076572829077
H           1.68240118869026    3.21667760802274   -0.74173863175693
H           2.10628505279995    4.07137110191823    0.60238192150507
