    26
        -50.45468008  Gyration_radius:  2.51506563692 Dipole_moment: 2.465
 S           0.59076933092152    0.46535817251981    0.84913514602053
O           0.60263857151294    0.84461697609643   -0.54889468466411
O          -0.19699212527688    1.37746523673605    1.65881291361088
O           0.13617930129043   -0.92684743697572    1.02163448572448
O           2.06207590354728    0.45840995713533    1.36794747457440
H           2.32575989580543    1.40759847031800    1.23185129464958
O           1.87346432725187   -2.37364973725495   -0.40627827224391
H           2.74291036175623   -2.02653124758365   -0.19985205861066
H           1.26212561818252   -1.93720013429578    0.21780620111754
O           0.44404924894611   -1.09999854887262   -2.34268238280760
H           1.00923764926013   -1.72534274930225   -1.84949603857527
H           0.49631296742610   -0.27462984737220   -1.81738428001140
O          -1.97773584870183   -1.85430419218558   -2.00167634505782
H          -1.03890810905679   -1.51996109068003   -2.21186036021827
H          -1.96175141161989   -2.80152217270648   -2.15405404189605
O          -2.66637449390547    1.13893092310425    0.90655602586664
H          -3.19632919786298    1.34226977534620    1.68064852784003
H          -1.72361915447397    1.32826397710061    1.16370276102329
O          -2.25173159598558   -1.31695382569755    0.41899838225514
H          -2.19948331771592   -1.53553456947110   -0.62477811312687
H          -1.26092910300610   -1.25371994468597    0.72467020007570
H          -2.57420468505995   -0.34950766405333    0.54063683835946
N           2.03428022165753    2.96880798613497    0.70050354746945
H           1.27554208045876    3.21559725189649    1.32506371976079
H           1.60560889653921    2.65212158569031   -0.16407584697647
H           2.58710466810996    3.79626284903353    0.51306491582814
