    26
        -50.46583691  Gyration_radius:  2.48727471485 Dipole_moment: 6.434
 S          -0.01170617228270   -1.99777696743093    0.05235759700896
O          -0.89267205690303   -1.29982659439700    0.99990797883292
O          -0.74887098378778   -2.51035536620606   -1.08107302880381
O           1.14312945422316   -1.20405091452624   -0.28262043845800
O           0.52712029158814   -3.27279013249892    0.83438003700160
H          -0.14030559263162   -3.92800277047095    0.66003641589562
O          -1.16862585085295   -0.58017990953192   -2.79258199545184
H          -1.98284930777734   -0.86527767693219   -3.21145001293422
H          -0.92206269743371   -1.30976923207884   -2.17649896383911
O           1.35604349127616   -0.77115364713924    2.40858310514095
H           1.89788622020310   -1.05955764451048    1.66527020954141
H           0.46027166466681   -1.03955295592046    2.14987592112676
O           1.18545677082149    1.85334748002313    1.86667582006547
H          -0.20423747357178    1.63982882784214    1.38804530905050
H           1.37921579444015    0.97268604145331    2.25986007747331
O          -0.81723663821231    1.82134268848002   -1.77077515404885
H          -0.92086046898343    2.44607426338162   -2.48974728247148
H          -0.92228509448295    0.92029436586405   -2.16523480891815
O           1.78859050414413    1.39557576482533   -0.67686045319283
H           1.62305414851522    1.83439698357592    0.98202039909007
H           1.71658230730362    0.42676370601359   -0.61753414428807
H           1.01057170898262    1.66952485080690   -1.18120586553370
N          -1.14216968603020    1.31456200910773    0.91322124409158
H          -1.11762252526847    0.25664383169634    0.92675105363327
H          -1.13944317821135    1.62887642892292   -0.06973186967435
H          -1.95697464974479    1.65837655964799    1.40832882967773
