    26
        -50.46850098  Gyration_radius:  2.45655611467 Dipole_moment: 4.967
 S          -0.31092962391084    1.66329649913796    1.10639413517207
O           0.45964528486569    1.80324705469370    2.31449872451145
O           0.50522678968041    1.83497879075199   -0.10445023095247
O          -1.11570603503847    0.46496628286564    1.02477642781924
O          -1.33994063123692    2.87948500488790    1.09231187462089
H          -0.89651343655456    3.55007204404011    1.60212933935314
O           1.54093541678891   -2.13731659585038    0.63369227167243
H           1.48512736895566   -1.68616546909606    1.50692809170595
H           1.68913629547790   -1.08131697506469   -0.39893021213224
O          -1.67746707453911    1.31815785067064   -1.51445190291351
H          -2.16195779558770    1.03068495256436   -0.73195021496946
H          -0.86330544006795    1.70370913111007   -1.13870440388276
O          -0.64903055010945   -0.83941075040395   -2.60000890098524
H          -1.10286736407926   -0.02157455619242   -2.25636415089925
H          -0.94824485098548   -0.95897276789464   -3.50178755055053
O           0.88486401868214   -0.77118112143162    2.82354880933455
H          -0.02809619089971   -1.04821641181506    2.93367399187257
H           0.84349157664985    0.19929988550242    2.71879463352287
O          -1.02704504290829   -2.04527808617167   -0.03518833800474
H          -1.16257832830109   -1.19342215723145    0.41611823904644
H          -1.04105751807907   -1.84331822999889   -0.97981654508012
H           0.60667743065668   -2.38150253749947    0.43672077482643
N           1.62137105815399   -0.29966177738964   -1.16743126459413
H           1.26075527001174    0.58113797408382   -0.70986503467295
H           0.90937369692057   -0.59182262299567   -1.86206695955979
H           2.51813568546347   -0.12987541127357   -1.60857157426537
