    26
        -50.45296538  Gyration_radius:  2.61648444458 Dipole_moment: 2.352
 S           0.55082061514925    1.17100591488854    0.09497523959496
O           1.23757455302232    0.79295184982610    1.30980291526091
O           1.13569182055344    0.57112761552524   -1.09733957892034
O          -0.88899737132837    0.87197140322298    0.16953154327441
O           0.62938325876184    2.71925728929577   -0.06788326116333
H           1.60669150954975    2.85984616016658   -0.10302776032729
O          -1.81623573293032   -0.97396815230089    1.92262174875342
H          -1.55452243004008   -0.16106641311375    1.45381034722584
H          -0.96117116702398   -1.40286123542200    2.13635767385448
O           0.04661076979276   -1.19266922361395   -2.62248645213936
H           0.26646611792651   -0.91416988158090   -3.51369781287275
H           0.56200735470879   -0.59535800081540   -2.01318506035273
O          -3.03615147161881   -2.10935707954500   -0.03230355389316
H          -2.55527558798273   -1.77455328785466    0.79352815304781
H          -3.97310071357900   -2.02399058908131    0.15311082036686
O           0.76404196416410   -1.63229985017912    2.27060172553681
H           1.11464711860960   -1.61995660153440    3.16305585523701
H           1.00100346769433   -0.76294900285938    1.87903814433067
O          -2.11440227781785   -0.37884754332676   -1.60066743683623
H          -1.31816954386425   -0.79701873210535   -2.10796575263066
H          -2.54087296664431   -1.14386736459019   -1.01498995059601
H          -1.64063624633350    0.23703171878274   -0.89920580332263
N           3.20059384238022    2.27400817374371   -0.08885300253023
H           3.07958754016961    1.77203893833116    0.78460762542645
H           4.15103498789028    2.61965026913142   -0.14245787698250
H           3.05338060879143    1.59404362497562   -0.82697848941277
