    26
        -50.45260440  Gyration_radius:  2.47833562942 Dipole_moment: 2.175
 S           0.67562210505137    1.56505272643848    0.64242890119149
O           1.33585527015109    0.33589448665175    1.06779791520374
O           0.78140556569135    1.78150069131011   -0.78179906863881
O          -0.68141004667284    1.65609027064938    1.15437124571521
O           1.46061652862459    2.74917082012852    1.34156960530385
H           2.29565024968974    2.74919538980548    0.88582785685931
O           1.05142901441124   -1.67426676710006   -0.72785107583268
H           1.33765153412487   -0.98873890046762   -0.09850772394060
H           1.48113675106224   -1.41050796228806   -1.56599878004527
O          -3.22275708719524   -0.60666902394361    0.21353301310284
H          -3.83939522503749    0.10563180412297    0.03396839870470
H          -2.45013552887745   -0.46511227795557   -0.40449918343602
O          -1.08975365593575   -0.14278234783032   -1.18930816976300
H          -0.42338542741624   -0.86176841139463   -1.11041515511812
H          -0.58266073254415    0.67820798425354   -1.09598863476224
O           0.11035040562600   -1.76834753631392    2.08704060517845
H           0.12202760642409   -2.31641762774057    1.29367685597460
H           0.71320021902410   -1.02011947094873    1.88042260763058
O          -1.86571040989499   -0.21108926406857    2.28981278053920
H          -2.52156065478440   -0.43806260211017    1.50867180003401
H          -1.13536326197856   -0.94815239782689    2.29342030405019
H          -1.36720184186002    0.62889689502215    1.92464437540681
N           1.94621872876235   -0.09277464629582   -2.77413078624752
H           1.35818254810373   -0.10915826575380   -3.59873766517551
H           2.88778761449056    0.12495034930076   -3.07621047751290
H           1.62219974100287    0.67937609436751   -2.19373952443295
