    26
        -50.46186237  Gyration_radius:  2.40674071048 Dipole_moment: 3.155
 S          -0.77749553403664    0.54980501422742    1.52004060133100
O          -0.44401128294339   -0.79433422297255    1.95942813605508
O           0.40557141903862    1.39238679699450    1.43406182713172
O          -1.54802533334827    0.57028049901021    0.29032026589123
O          -1.71239329702445    1.15523773552758    2.63814544158332
H          -1.33098527062753    0.77834969607623    3.42312242601701
O           2.14877545373573   -0.49620826432890    0.97641877950458
H           1.87433602846440   -1.14476140704331    1.63201263101326
H           1.58109129258415    0.28917664973134    1.16012814425294
O           1.18040653873454   -1.43269033811015   -1.20279601558723
H           0.65987493058598   -0.58558430748147   -1.60920524171108
H           1.70558426683780   -1.06943128685041   -0.40811506142325
O          -0.08276125979059    0.58925448084148   -1.91150039820028
H           0.55588704798695    1.34044269672865   -1.75487500750455
H          -0.71336522908069    0.65505070348068   -1.16105539087238
O          -2.75517236414778   -1.41728885280828   -1.03645893801133
H          -2.68593011780195   -1.13405772937040   -1.95064301050071
H          -2.51028888253930   -0.64226476077786   -0.49544133817867
O          -0.62903593342004   -2.60509522279011    0.04533393290885
H          -1.48242484699008   -2.38434767647786   -0.39200041138349
H           0.42415101429340   -2.03500344054060   -0.74737616693599
H          -0.60895017991025   -2.04507945631753    0.85435066012987
N           1.55735602076177    2.45873882276994   -1.00009011677507
H           1.43889777700982    3.43848450834181   -1.22337971161292
H           2.55009707919575    2.26129280209311   -0.98274161630663
H           1.19881065243209    2.30764657004672   -0.05768442081544
