    26
        -50.45260450  Gyration_radius:  2.47835836911 Dipole_moment: 2.226
 S          -0.07055073803833    1.81945781636947    0.01747681735579
O          -0.05956248955595    1.14388949340047    1.30984172815696
O           1.14585597014052    1.59819823472851   -0.72982451000306
O          -1.28380710441160    1.53543105989652   -0.73047464574639
O          -0.13156757329159    3.37049829855975    0.33068326629800
H           0.74559291422391    3.55818150092198    0.64729595889888
O           1.15689506851196   -1.27574908674027    1.21517281969628
H           0.84015578958268   -0.37189343133348    1.39046289916482
H           2.09451111974264   -1.14668364255361    0.96849784734287
O           0.30767595627648   -0.92208882924865   -1.29416840350244
H           0.61699598395039   -1.26238479530860   -0.42479303268211
H           0.55736836026589    0.01462847147835   -1.29860274625385
O          -2.09915995422511   -1.70574068691154   -1.86491500990950
H          -2.29915264420294   -1.38533423975378   -2.74653366953129
H          -1.13963614642079   -1.47918498499418   -1.70005263850887
O          -1.66997847194229   -0.82712887345544    2.00950244689234
H          -1.04146107411870   -1.54931687035721    1.89400325035642
H          -1.12347509389373   -0.01195341880874    1.95767570012089
O          -2.95560102379965   -0.17890153289277   -0.06374162673328
H          -2.72186374644801   -0.87742496668119   -0.80487750182714
H          -2.54851376793405   -0.53296407169323    0.82262215187198
H          -2.34095083191164    0.62529842056646   -0.31433618800104
N           3.38306063341331   -0.20554380496727    0.03623526824387
H           2.74657577852121    0.52041859425198   -0.28918446979231
H           3.70307677119984   -0.70681411585351   -0.78371007423825
H           4.18751631436789    0.25310545148039    0.44574438225963
