    26
        -50.46186228  Gyration_radius:  2.40673539621 Dipole_moment: 3.156
 S           0.74779504372380   -1.49910896711214    0.64026683805641
O          -0.26705713993465   -2.13552014255567   -0.18200974706110
O           1.80992766322768   -0.92501022818639   -0.17171076060105
O           0.19829282312055   -0.53438196894082    1.57499885521523
O           1.38530940478733   -2.64811116319195    1.51440380389153
H           1.37412445291034   -3.37527202638288    0.90210655777064
O          -0.04738320676205    1.91054518317234    0.59669331886371
H           0.06762476811480    1.06051524393278    1.07566936228991
H           0.85798498012068    2.09791102565259    0.22003894899211
O           0.40468297158113   -0.48560516984317   -2.32761660922396
H           1.02886152735545   -0.62212655453128   -1.57625146564026
H          -0.06929538190511   -1.32015050670841   -2.39568232534271
O          -1.35706738962762    1.10094330576976   -1.35665218749268
H          -0.64888585800453    0.57106901246103   -1.86365303120960
H          -0.83851590615891    1.54513777020926   -0.52756035189623
O          -2.33888884593589   -0.05221621363522    2.28019644461574
H          -1.40248475386199   -0.31997735907237    2.21069779478027
H          -2.33154250668759    0.88920478770342    2.46575306175979
O          -2.54422068457910   -0.80028796146908   -0.26930916082424
H          -1.78546904246025   -1.42664476742096   -0.24517587312910
H          -2.69790063749165   -0.55566078086810    0.67130378677656
H          -1.97591918010982    0.34278512509936   -0.92726011083154
N           2.37393497381322    1.89950054214245   -0.47709262683860
H           2.41875441539126    0.88825350837675   -0.35509281721654
H           3.17504212746600    2.30392658170469   -0.00970257876246
H           2.46229540190582    2.09028173369528   -1.46735913694269
