    26
        -50.45406467  Gyration_radius:  2.45684290856 Dipole_moment: 2.141
 S          -0.94010468085293   -0.51818480994735    0.89748877984019
O          -0.67384981241949    0.83084055629753    0.41629223496930
O          -0.18174209079243   -1.50754463073086    0.13495368511838
O          -0.62607061713630   -0.62139451661543    2.33358273259830
O          -2.43443124696431   -0.82029503787334    0.76559377432666
H          -2.67916592898333   -0.63449028922760   -0.20216898115528
O           2.30879329048055   -0.89326627301727    0.41841388506132
H           2.80351118813026   -1.71541375166613    0.42034693171452
H           1.36777424257593   -1.13977049164262    0.20675393362584
O          -0.64326225009377   -1.29972733359421   -2.51358038947189
H          -0.08807401536819   -0.49538411504155   -2.62693192272526
H          -0.41995982025102   -1.60056275215475   -1.61518676705875
O          -2.95790005475338   -0.47616844058032   -1.69988737148165
H          -3.61157434838618   -1.12001190095835   -1.98145806972607
H          -2.09001462231109   -0.75277596542900   -2.12840774316896
O           0.82007200384993    2.44412749173041    1.79333492642789
H           0.21934109184705    1.93893432299778    1.18575504903020
H           0.24808175795974    2.93819697166573    2.38384067607970
O           1.65569752754386    0.19703935321297    2.63106400164376
H           1.47895658338626    1.17832026383865    2.39385314762950
H           0.62558912138331   -0.22310284099351    2.60308796487043
H           2.07962417063423   -0.21524273675307    1.79819532979830
N           0.83584954028424    0.92781203369710   -2.07179715969229
H           0.86070733180362    1.82049885706526   -2.54806771964257
H           1.77649567685266    0.71786970477676   -1.76009883267043
H           0.26565594157484    1.03969632096884   -1.23497207594550
