    26
        -50.46154398  Gyration_radius:  2.43321780627 Dipole_moment: 1.330
 S          -0.23399318589077    0.17509916823933    2.12001832921627
O          -1.36844416822551   -0.66484563513467    1.74378078291389
O           0.97694534065827   -0.59975124198674    2.28995555071900
O          -0.07865161913943    1.29989132127108    1.21629908740743
O          -0.57798430379195    0.79668954279713    3.53071051620655
H          -0.45853918519037    0.06690406446577    4.12994033209621
O           0.29894034274537   -2.81247240275430    0.97607036071697
H           0.66770654345186   -2.08217554151345    1.51313455553123
H          -0.62295099318725   -2.86737374040088    1.24148939910000
O           1.92576009658595    0.33129300622690   -0.19400041732970
H           2.42336164843798   -0.16734950989698    0.46060695678629
H           1.24671152193849    0.80422333219368    0.33173467649771
O          -1.39730227331327    1.91289174270491   -1.02831340353362
H          -0.96673784244359    1.98441151596443   -0.15546198142175
H          -0.64866360005238    1.88348260904422   -1.69250205784462
O           0.31381022430569   -1.50343952062739   -1.32905524131367
H           0.96806932568549   -0.82057505691491   -1.06133485270470
H           0.36747502756331   -2.18147630526803   -0.61427340441480
O          -1.90575063937749   -0.49393260824673   -0.72346346319730
H          -1.79677204818011    0.56587033169058   -0.92468536311560
H          -1.02462798503825   -0.94256533383430   -1.08831461730519
H          -1.81578984847183   -0.57560741457790    0.28959962403144
N           0.69556430330496    1.54468113512560   -2.63398378963132
H           0.56038390093540    0.72417537527399   -3.21209340710517
H           1.42311397230831    1.32693921626333   -1.96041246065748
H           1.02836546438179    2.29501193990512   -3.22544572166693
