    26
        -50.46814220  Gyration_radius:  2.48815640751 Dipole_moment: 4.362
 S          -1.36052662281594    0.10796141003926   -0.23235381077863
O          -2.35283754761219   -0.10474856605034    0.91969758653298
O          -0.37892779656370    1.12286076311387    0.21552523031232
O          -0.65221037469564   -1.15375639740044   -0.48349087689923
O          -2.09047885272951    0.55370443056222   -1.39165954784506
O           0.68449894159600   -2.14839698588206    1.52681938507122
H           0.38831582690838   -3.04971271166151    1.66527394509085
H           0.14044064988886   -1.79418872123902    0.78121685984910
O           1.90070907211905   -1.51520262025877   -1.15610092503597
H           2.22280511938162   -1.76307847424575   -0.28337233896027
H           0.92404592369727   -1.54470096367242   -1.07064968355842
O           0.08105861364931    1.99018070421279    2.68525801571846
H          -0.03145725995536    1.75475002480661    1.74089427378863
H          -0.56301373440645    2.67642342229180    2.86764654272910
O          -0.51297430525756    0.71655879224200   -3.44598154180918
H          -1.20666726659296    0.72390553347165   -2.73574784577984
H           0.76852048937182    0.97601610610460   -2.50275211533595
H          -0.59656719073920   -0.13761596693899   -3.87449914562953
O          -0.90090947224055   -0.49968617685762    2.97995977045094
H          -0.47761247435965    0.37659323925283    3.09430266927029
H          -1.81858357812768   -0.28453010900989    1.76615502560694
H          -0.19993606254874   -1.09567087743979    2.64988821048376
N           1.39544346686665    1.03524276669658   -1.65216419711824
H           0.72240262621018    1.17810990477696   -0.83038836106780
H           2.07313869417784    1.78566134902721   -1.72681531844835
H           1.84132312477833    0.09332011405596   -1.50666181663629
