    26
        -50.46154383  Gyration_radius:  2.43304338146 Dipole_moment: 1.323
 S           0.86874029086828   -1.83810178529554    0.66815613292154
O           1.78933900216700   -0.83895996011318    1.20506024301808
O          -0.27716461371148   -2.03352248957816    1.53098231952126
O           0.51309171337303   -1.55194740492330   -0.70940555754859
O           1.65393151337464   -3.20825358700923    0.63763499839561
H           1.68065299946762   -3.46913770363574    1.55248426084723
O           1.12972546246875    0.53868226457912   -2.25975239301985
H           0.21586689365513    0.90440316284140   -2.44317002083973
H           0.98546775013323   -0.37428504230561   -1.94673898595678
O          -0.15009390220541    0.19408438630631    2.98139609859545
H          -0.29919092091176   -0.67376015094226    2.55436494761917
H           0.80433039241536    0.25940503815562    3.07156961899836
O          -0.78257962417961    1.66078250738886    0.86575926280633
H          -0.65736694180437    1.29812802255132    1.77477414115094
H          -1.28678491440157    0.96031035717957    0.39547259975762
O          -1.87406213617111   -0.53751267639472   -0.24295873715673
H          -2.17903602678343   -1.05255434409606    0.50970817648009
H          -1.04288126754698   -0.98088110275312   -0.51439597636795
O           1.56993998039394    1.38986310450112    0.02638555702363
H           0.59588068446704    1.62428757976258    0.35370907865885
H           1.78368638848677    0.51801544992538    0.51148341059353
H           1.46582408928039    1.10710389963362   -1.01493050550999
N          -1.36543778847941    1.45818280153039   -2.41023117819480
H          -1.81764309352272    1.57530633298141   -3.30757857199798
H          -1.45531020348889    2.32618318402110   -1.89632050437836
H          -1.86892572733565    0.74417813568558   -1.89345838542642
