    26
        -50.46154464  Gyration_radius:  2.43339904603 Dipole_moment: 1.383
 S           0.77144020522881   -1.09497066238487   -1.66903589685598
O           1.34599512942912   -1.80574001516012   -0.52974411360050
O          -0.57359891437260   -1.54356401574542   -1.96181825863332
O           0.87980679457996    0.34361276905963   -1.51067503317753
O           1.65446648535913   -1.46131311645481   -2.92652862366360
H           1.36895131256719   -2.34191942730229   -3.14772619952981
O          -1.19499123466517   -0.39365012322519    1.59763810730321
H          -1.43457145286843    0.14763086451337    0.81317315622048
H          -1.35079687439671   -1.32300587320252    1.30521499500295
O          -1.61225776773262    0.79551628966889   -0.78318888199319
H          -2.10270156749393    0.14111809411382   -1.28910599637026
H          -0.69813112350525    0.73067757514493   -1.13161202574090
O          -1.17658697501064   -2.72944508763556    0.34368558418311
H          -1.08165397883140   -2.36347151079792   -0.55890822085044
H          -0.32225734773057   -3.12507097771738    0.53586336673417
O           1.77204407099686    1.79468845975219    0.55019055818555
H           0.94383814018157    2.30748447119193    0.78263606345506
H           1.62334561388029    1.45866945538564   -0.35401864184181
O           1.31764611051515   -0.41180937316451    1.58292731476211
H           0.27233086898688   -0.37350322447571    1.70936808092988
H           1.44030052393203   -1.02240378479782    0.77495179699581
H           1.60371643442145    0.57305047389571    1.22866054593669
N          -0.59931865587588    2.86111613456273    1.12493930576097
H          -0.94788474582360    2.50452463483952    2.00636184776254
H          -1.17440635332760    2.46685092689114    0.38721879700937
H          -0.72472468843981    3.86492703304742    1.11953239187600
