    26
        -50.46154477  Gyration_radius:  2.43325427934 Dipole_moment: 1.383
 S          -0.20652331156716   -0.51267269350166   -2.06767772902933
O          -1.16462364928742    0.56317901084337   -2.21102061005614
O           1.16473149228533   -0.01439685926266   -1.99846333055858
O          -0.50457223690523   -1.40980914835034   -0.96644636702879
O          -0.30798567728398   -1.38642441643775   -3.37974109771358
H          -0.35867571809508   -0.73723034930649   -4.07379885121233
O          -1.87252861773728    0.29671429966400    0.50335770701765
H          -2.32057831106312    0.83337905162404   -0.15692765863348
H          -1.45764083826894   -0.42396689232284   -0.01592581419989
O           0.97177880987623   -2.09442048365559    1.15535390551391
H           0.39192046279646   -1.75344801907006    1.89731921078236
H           0.38957544729693   -2.14473187042767    0.37366667004599
O           0.36244134828564    1.68817982297909    1.07217500592395
H           0.37238845672250    2.25102179805725    0.26186925405974
H          -0.49279285143333    1.20688518899033    1.01907276153763
O           0.32643776281042    2.61781739763453   -1.41042285878562
H          -0.32114255621743    1.97055657595040   -1.75578050509799
H           1.16392738041845    2.35501867044388   -1.80150574961260
O           2.06796313004860   -0.01672308255231    0.36588097571468
H           1.42713856585976    0.72125140072536    0.75917470108324
H           1.70513285627549   -0.95858316494175    0.76409045726831
H           1.82416475698126   -0.04438625609870   -0.62442998116208
N          -0.61399359602417   -0.90567493885537    2.93367463196086
H          -0.15491249170106   -0.09762909378261    3.33603960308435
H          -1.03181653207653   -1.43763487847423    3.68591310908352
H          -1.35981408205238   -0.56627109982647    2.33455258006924
