    26
        -50.46154469  Gyration_radius:  2.43336213362 Dipole_moment: 1.379
 S          -1.81585978375527   -0.97666545186556   -0.57292042367210
O          -1.07567988637971   -1.69929416403062   -1.58585675932305
O          -1.57461760124211   -1.51340627769351    0.76387032230707
O          -1.60691684367260    0.45882382076887   -0.61760218216275
O          -3.34787967444694   -1.20235508297762   -0.88469092851375
H          -3.39710061034220   -2.13031265205003   -1.09053585206892
O          -0.71208356611753    2.13614889257522    1.26277919316520
H          -1.24528582283474    1.74396002397833    0.54554313580423
H           0.11835669676893    2.47837645451960    0.81991096443833
O           0.74668796198890   -2.89672610424379   -0.05961875327278
H           0.19391847856592   -3.10365293188944    0.69867476491976
H           0.12456661452239   -2.55273899314290   -0.73215483350768
O           0.77056725806982    0.42252099677519   -1.75347465422381
H           0.71283777317633   -0.33614341157986   -2.34154194804872
H          -0.14276421624920    0.53173523042311   -1.41420973038913
O           1.89028199153272   -0.56832998761292    0.48714884842893
H           1.69242298064229   -1.52016677551137    0.31865521317048
H           1.61555423442899   -0.11633675941982   -0.34113316643386
O           0.02606226579675   -0.07707963836610    2.09869272980141
H           0.88540095947643   -0.24691280974675    1.51315967668659
H          -0.29400084074305    0.93146586031747    1.85902056711422
H          -0.67849193832334   -0.67953948415123    1.67279597822186
N           1.55407337420595    2.71929243911101   -0.00827204138215
H           1.43808734016327    2.19005605195950   -0.86667320788244
H           2.34985193881064    2.33144079886878    0.48353896299448
H           1.77201093585166    3.67583997501327   -0.25510586620109
