    26
        -50.45068678  Gyration_radius:  2.48314515789 Dipole_moment: 1.679
 S          -1.82946805612473   -0.79754022902996    0.17444497566204
O          -1.37289607207874   -1.49764541728303   -1.00844684870423
O          -0.94524030753366   -1.04550182322626    1.31488339645881
O          -2.06334189443749    0.61408156561847   -0.02858369406042
O          -3.22386345907522   -1.43928711935942    0.55438454204704
H          -3.05100867063078   -2.35799061924382    0.38092066925168
O           2.58067941414199   -1.92888585691705    1.00737027440037
H           2.17872800446148   -1.89865665117481    0.10161775596459
H           2.26048269913091   -2.73445429792063    1.41732091138971
O           1.25333400839175   -1.59249946839160   -1.22878351132022
H           0.27419879764229   -1.64131573607536   -1.14577214754827
H           1.43966050487290   -0.74968428891747   -1.64988067955290
O          -0.91471823817291    2.77106405935416    1.06336725513845
H          -1.06405887802897    2.70829748032519    2.00797315314605
H          -1.44035320780778    2.05227046224900    0.65714620824756
O           1.31040352529862    1.81458865240676   -0.01912839426570
H           0.89949803749770    1.47208755379602   -0.85409143331639
H           0.61851551968607    2.40286239297418    0.36025662735930
O           1.22708800171254    0.08723755118299    1.76569989316224
H           1.33346528796526    0.83016338751466    0.98991607254533
H           0.28964987213088   -0.33514576875410    1.63181350385249
H           1.87632848060657   -0.67672548262197    1.55241155104155
N          -0.15876939436825    1.00393149784241   -2.11950899559642
H          -0.15655103077926    0.26246103019585   -2.81071333958128
H          -0.37259469745981    1.86428491796421   -2.61201466203413
H          -0.94916828702385    0.81200218749441   -1.50260308370483
