    26
        -50.45800669  Gyration_radius:  2.47440369944 Dipole_moment: 7.503
 S           0.01524574266557    1.32607851910431    0.15386804021386
O           1.32533174434731    0.69312749581227    0.31040425132175
O          -0.94887585126801    0.38434612532614   -0.41683190050467
O          -0.50172040728910    1.78631522928641    1.52101756870849
O           0.14947246632810    2.51867559167829   -0.68873415091515
H           1.06954582584854    2.01174020271872   -1.67836527931502
O           1.66760843903751   -1.82200051060257   -0.01729532962643
H           1.52043119351535   -0.84818411960526    0.15430919956697
H           2.54695448572111   -2.01602221858831    0.31114123908629
O           0.43659310608713   -0.80929445982134   -2.27970137334603
H           0.90275830357878   -1.45144553097616   -1.72101650520892
H          -0.25488283778593   -0.44308480013073   -1.67665302836689
O          -3.38610791179487    0.29895681922629    0.67721314912998
H          -2.56379848395486    0.26544309533164    0.14730513302380
H          -3.66080244989477    1.21744686103301    0.68037654576403
O          -0.31957056623468   -2.47269573436155    1.75904736092123
H           0.31153028189911   -2.29526415337073    1.03657929174593
H           0.15306342542883   -2.96499465048379    2.43202656671402
O          -1.57971167776869   -0.22085323075562    2.60765653812519
H          -2.41010696556907   -0.17388158525751    2.08943259772906
H          -1.14126553506942   -1.04438985267291    2.30871332263955
H          -0.89502737995716    0.97455323230955    2.02363365827957
N           1.75684510477741    1.42912931143248   -2.31811189580369
H           1.92040581763042    1.87389086840787   -3.21569892370516
H           1.26869281775222    0.46252532437925   -2.41187331965924
H           2.61739132196901    1.31988217057796   -1.78844277651344
