    26
        -50.45800660  Gyration_radius:  2.47446982878 Dipole_moment: 7.508
 S          -0.46688877747774    1.24848523550082   -0.06058261783405
O           0.27264816385456    0.39808328213778   -0.99436140443301
O          -1.04178811455791    0.44926463220718    1.02210889017886
O           0.49652735108100    2.28820653178875    0.52167462038614
O          -1.53758336335102    1.97851206598003   -0.74687787652091
H          -2.54976072157338    0.95044707591176   -0.77692524049087
O          -1.28974187762336   -1.67734862113791   -1.25301077561149
H          -0.60422823789351   -0.97028862288166   -1.33034175201377
H          -1.03293310500757   -2.14984354749406   -0.44515286828841
O           2.65988921888327    1.26454656025035   -1.82844287649095
H           1.78733694130342    0.85606031763970   -1.65532724082299
H           2.47835479351259    2.15365240601436   -2.13748194685143
O           2.25546568939410   -1.49850049336229    1.40725536256089
H           2.50794131010250   -1.78971980317615    2.28483008774329
H           1.32104307521337   -1.74828787028797    1.27979808926612
O          -0.43888480866772   -2.01520318726691    1.35855363385884
H          -0.79159113886325   -2.26098294765184    2.21524497847435
H          -0.63635969866890   -1.04110120553931    1.25086637806788
O           2.70994659574633    1.12336290952620    0.86191713705566
H           1.39795547750851    1.83153283037236    0.73364706703443
H           2.56649883633529    0.17339785012614    1.05409197392501
H           2.97857999383709    1.15326896700575   -0.07996519293984
N          -3.16441168242832    0.03537949585801   -0.69856640932702
H          -2.47653456835310   -0.76342784895347   -0.96325497910545
H          -3.98100447151943    0.06465067353449   -1.30067169490359
H          -3.42047685078560   -0.05414668609620    0.28097468708347
