    26
        -50.45617991  Gyration_radius:  2.61968421782 Dipole_moment: 6.926
 S           0.97919103579533    0.21919133458338    0.43866946147966
O           1.56200572831226   -0.74860706386918   -0.49557804476227
O          -0.30101269595718    0.78554264498518   -0.25596501861341
O           0.62309164815457   -0.37148021853938    1.69746100835496
O           1.84453738826204    1.40317118989499    0.56124924130188
H           1.63213427202578    2.06522350251480   -0.63586723460066
O          -1.35099728198285    0.37437207436941    3.25553486286750
H          -0.59584076107479    0.16304153294798    2.66048851229006
H          -1.16411725652534   -0.09470955800699    4.07104880663515
O           0.02716645833552   -2.90942667835501   -0.25583796642121
H           0.22126469880671   -3.40056589505740   -1.05660948593378
H           0.67584921774730   -2.17733605453878   -0.22099262725300
O           2.30856281138643    0.21668336798213   -2.77513029081563
H           3.24973130185984    0.04121510884000   -2.82889861112998
H           2.00034434792643   -0.24586336012347   -1.94785810806147
O          -3.33893389145902   -0.70536549156951    1.83905072882020
H          -3.97774382766899   -0.00204683449979    1.71385830362813
H          -2.62592593773041   -0.32578074712125    2.40513202921947
O          -1.94383149513769   -1.09602563882210   -0.40368582686343
H          -1.36175601185649   -1.87884053064558   -0.29397588729388
H          -2.49693532102671   -1.04620225630273    0.41211040577147
H          -1.00680659014897    0.02118449922466   -0.32447718315968
N           1.33450820442674    2.40133658004330   -1.67416099810042
H           1.62839677519066    3.34455298673667   -1.90287719398592
H           0.31995188059138    2.30072791562915   -1.67843937990073
H           1.75716533172079    1.66600758972814   -2.30424948349689
