    26
        -50.46516742  Gyration_radius:  2.53904210163 Dipole_moment: 5.801
 S           0.24890072478406   -0.56785572966604   -0.00528833654598
O          -0.17887455546105   -1.90658449530484    0.30911593198355
O           1.67755842866091   -0.47483136418718   -0.34740646618949
O          -0.56162775097833    0.06269760053237   -1.04333420110881
O           0.13364700666069    0.32988193366161    1.26771681497097
O          -1.19902317663915   -2.63060340678805    2.65515349677765
H          -0.80821906382269   -2.48538988938706    1.76812499686221
H          -0.48285430544388   -2.92998123341452    3.21645140063272
O           2.07356555199802    0.26146232467318   -2.91583896738602
H           1.99962483930373   -0.11746779495767   -2.01742954799178
H           1.70584796847473   -0.39498322144114   -3.50938687395379
O          -2.85920259117189   -0.98012091218718   -0.19579909984394
H          -2.61330259531236   -1.90721272905474   -0.13190466646120
H          -2.10717242828221   -0.54969183823274   -0.64568331924438
O           0.46121063641031    2.24423841235098   -2.08491447116200
H           1.28552991440830    2.32596028220590   -0.84280094084517
H           1.07331339527016    1.75796267672292   -2.67434852928840
H          -0.14368677431378    1.53216024087151   -1.77105683242326
O          -2.14283729431004   -0.14451400220000    2.22535100079000
H          -0.80004770046580    0.18417544601520    1.68987707702239
H          -2.63074080829393   -0.34818130940220    1.39303729334752
H          -1.96981439366583   -1.01870144637410    2.62838399790212
N           1.85262037690048    2.05227097602218    0.06073472905916
H           1.28855865632677    2.20736442630130    0.89483590443292
H           2.75405465282749    2.51509031554840    0.11857102477497
H           1.94297126613419    0.98285472769187   -0.04216137611523
