    26
        -50.45617982  Gyration_radius:  2.62005532161 Dipole_moment: 6.923
 S           0.30276392361093    0.55053991854669    0.89841114852181
O           1.17481043090894    1.36362508439362    0.04530965986569
O          -0.87808028164336    0.07317456746396   -0.00703601126240
O           0.97668326854200   -0.58936904842577    1.45221039234162
O          -0.36584755863442    1.39245967021086    1.90331965520408
H          -1.31723714913861    2.06581236494015    1.15666449522722
O          -0.29368395054076   -3.83670257676330   -0.46707455813941
H          -1.20347883122361   -4.12039473829742   -0.56791330812216
H          -0.20474963642026   -3.54003853464287    0.46945050241295
O           2.52186897598871   -0.40957830763480   -1.41158780158479
H           2.14459666162411    0.22306264490154   -0.76703831411381
H           2.84776717722566    0.11739314725032   -2.14375353971987
O           0.08856862306897    3.48605083855032   -0.95489705654356
H           0.61168505294120    4.21847630845466   -0.62414618058628
H           0.56686940434626    2.66396873400540   -0.65692136780225
O          -0.10345055466803   -2.90957582208135    2.02830699177433
H           0.24402214450568   -2.00795760688858    1.84034702523870
H           0.58239073789847   -3.33853195314612    2.54364106354111
O           0.08713148008595   -1.49830917532720   -1.69820801269108
H          -0.50325905540888   -0.59009698099897   -0.71882915841834
H           1.04011996041546   -1.26500799778926   -1.66750643704138
H           0.01112091958729   -2.40291722460064   -1.31124056333756
N          -1.97820260078512    2.51388313933034    0.35534867783942
H          -1.30495091001143    3.06841556458741   -0.24102930825781
H          -2.74667680283969    3.06828124936054    0.71646112975573
H          -2.30078141947581    1.70333672457492   -0.17228908411020
