    26
        -50.45617982  Gyration_radius:  2.61989128546 Dipole_moment: 6.923
 S          -0.07024046818465   -1.09261613699079   -0.04509377274313
O           0.17922545279079    0.16620980949581    0.84654210826748
O          -1.41009957181274   -0.93350031094170   -0.61852468399407
O           0.95327595554564   -1.18429649510793   -1.04716680213990
O          -0.05290676006526   -2.19855975217781    0.92559520428240
H          -0.71956709152981   -1.66298460983984    2.01426887326799
O           3.43358091741755   -0.35999708573497   -0.82279989532431
H           2.50825926044661   -0.69530518182132   -0.84090849725356
H           3.85574529447231   -0.75276505458650   -1.58930305702001
O          -3.34609878110130   -0.82542602780056    1.09145162266310
H          -3.91664703555374   -1.56521097060688    0.87535531245248
H          -2.65777675384617   -0.80339577604645    0.37087497919149
O          -1.08925741347868    0.84341525732831   -2.57374206526652
H          -1.16798759047997    0.07959924300343   -1.96685887329564
H          -1.98337766235369    1.15366892556185   -2.72984107027870
O           2.95805418619797    2.25234309001305   -1.09160965195385
H           3.38805472238880    2.67068893756404   -0.34430396192177
H           3.17338505009623    1.29201151094543   -1.02519801692073
O           0.32083263458828    2.13444221767780   -0.69209901485178
H          -0.11604151473047    1.78880936755785   -1.50033650680448
H           0.24884797235931    1.00234178337192    0.22769877395687
H           1.27553726037240    2.24100245596791   -0.91784443368349
N          -1.31164125474644   -1.03937163471724    2.74927705833528
H          -2.25465760835401   -0.93537278475487    2.28414157520630
H          -0.83469252806643   -0.13831949576764    2.73995575035170
H          -1.36380667234753   -1.43741131158816    3.68046903543533
