    26
        -50.45617987  Gyration_radius:  2.61973965682 Dipole_moment: 6.925
 S           0.88860237326814   -0.51401400591701    0.38356087878550
O           1.56498698729831   -0.17774615498863   -0.87287584542958
O          -0.18244309848261    0.59949070959123    0.61859710938745
O           0.24790240807454   -1.79768255060953    0.34091828888057
O           1.80351082714742   -0.34365540620510    1.52346787758091
H           1.88225870238030    1.03250963838073    1.65169499232479
O           2.81518828305335    2.08531234305832   -0.89275626449366
H           2.31605557325165    1.22790451356636   -0.98848695737857
H           3.73177879280970    1.86730860812579   -1.07113486605038
O          -1.93018055779084   -2.49268825176203    1.62711894134179
H          -1.94385876829579   -3.44552155470903    1.51798055820693
H          -1.09134432490402   -2.19892228152249    1.20392385593195
O          -0.15173681534632   -0.91212346467736   -2.76904678687484
H           0.15732595802234   -0.42840680851375   -3.53748695900544
H           0.53278565592226   -0.79471554974199   -2.07940571358272
O          -3.67838722847170   -1.21708769101658    0.06506438949625
H          -3.06331014140544   -1.72992065751912    0.64096104323529
H          -4.22094532958001   -0.69562073743464    0.65842892145377
O          -1.90623609690482    0.34626658584819   -1.17743606260938
H          -2.60292680195437   -0.24844602347026   -0.81026888890587
H          -0.91831941699106    0.51235065868088   -0.11479942439666
H          -1.42043053917052   -0.18056276497246   -1.84828468970743
N           1.82097633403492    2.15693898670261    1.54443375678952
H           2.22729088508801    2.66836537278219    2.32009612287175
H           0.82214269707011    2.33529897808343    1.44438248335118
H           2.29931364189412    2.34536751826656    0.62135323881020
