    26
        -50.45296542  Gyration_radius:  2.61646779781 Dipole_moment: 2.350
 S          -1.19388466504234   -0.21444553142128    0.46070389467101
O          -0.29247929381208   -0.69658082522556    1.49924392741876
O          -1.45492837691272    1.20437383509408    0.55637322100098
O          -0.69019679926910   -0.58540092811587   -0.87226030648588
O          -2.54024611214891   -0.98605576945132    0.60795616953359
H          -2.83200694257744   -0.69457054309028    1.50576734978945
O           0.45751555867362    1.27760607833432   -2.46984779336950
H           0.60419360385862    1.96974996295195   -1.79148918840170
H          -0.13978063067495    0.64683979602710   -2.02890220290929
O           2.46986476862940   -0.29724789236338   -2.73537974968016
H           1.75672757928972    0.41712928682386   -2.65506314817597
H           2.49143971046334   -0.54786593680551   -3.66075916760534
O           2.09432275624256   -1.59928043675268    1.16556578343682
H           2.15164518862326   -2.35900157511125    1.74835535854802
H           1.22292544705605   -1.16088669760421    1.37088523358190
O           0.44262810293424    2.84996790542458   -0.29241780631163
H          -0.23146940433682    2.24792942603813    0.09273204856568
H           0.01794912022119    3.70707162182415   -0.35978476390048
O           1.35512233685777   -1.96167503697820   -1.22155569341955
H           0.43834652858000   -1.47282225103865   -1.09332544068691
H           1.89326005127913   -1.32121830488393   -1.86198674331870
H           1.78562926932143   -1.88283658385362   -0.28628860330284
N          -2.60089249145389    0.19132044832073    2.93601520859654
H          -1.67157018692045   -0.17200442375466    3.11809983205164
H          -3.06545404232374    0.36833185353661    3.81839698890259
H          -2.46866108654608    1.07157250213450    2.44896563135873
