    26
        -50.45617940  Gyration_radius:  2.62013262166 Dipole_moment: 6.918
 S           1.03701062914226    0.12744829680667    0.34045805873982
O           1.40210616379181   -0.99717863894554   -0.52648356689593
O          -0.21484426532406    0.79763076624529   -0.31198046231248
O           0.72044759722163   -0.28514305892779    1.67830461766321
O           2.05749552457264    1.18533471585446    0.26995630062669
H           1.82819948091478    1.75104027848057   -0.97254503578146
O          -1.00304564822002    0.84773893563484    3.29954220654362
H          -0.81101430080264    0.42515799254022    4.13887997658894
H          -0.33444139323257    0.48771926329595    2.67328834946717
O          -0.37356009979321   -2.89165322380578    0.05492772681040
H          -0.31440491707299   -3.48015905868946   -0.70018992387334
H           0.36535148856855   -2.25626952745278   -0.03632685306503
O           2.05692345107973   -0.37120143930581   -2.94809041194387
H           2.95709975879245   -0.68345979454389   -3.05629581824148
H           1.76760124446050   -0.70376498715774   -2.05423123589575
O          -3.22978445787176   -0.05734837426304    2.14038514061852
H          -2.42695995998002    0.26480022346362    2.61446002981628
H          -3.77536121291932    0.71623242535322    1.99127002716145
O          -2.09527402662441   -0.84449996329653   -0.14436497452498
H          -1.01719057916395    0.13460440353600   -0.24932919911314
H          -1.61353328002567   -1.68656366363127    0.00563583116879
H          -2.56614332427771   -0.64158993324761    0.69888981497498
N           1.48540850372384    2.02409722260651   -2.01541715652912
H           0.47022774119579    2.06698232798054   -1.93134419972436
H           1.74844459766966    1.17971739859797   -2.59347725145631
H           1.87924129414713    2.89032739288638   -2.36592197078028
