    26
        -50.44991619  Gyration_radius:  2.48957498392 Dipole_moment: 0.434
 S          -1.18646718095705    1.59953044573965   -0.02261474244385
O          -1.93671460120655    0.74642670073360    0.91189971279457
O          -0.07550686732453    2.24809484580510    0.63508117266350
O          -0.83360861376084    0.87962053969811   -1.22496021395785
O          -2.18578302734920    2.74638478993027   -0.45137461330882
H          -2.12402130822569    3.31673182792893    0.30697069731616
O          -0.36550508552889   -1.73881089724064   -0.95905957868383
H          -0.60110509807212   -0.80742771718705   -1.14751130762153
H           0.46514228939340   -1.70211849191209   -0.46571405855844
O           1.50679018062573   -1.21376283377510    1.08961759843346
H           1.84874167669164   -0.29211530518148    0.77519771306473
H           2.21052751048040   -1.59000332338013    1.62016897536278
O          -2.04279096895054   -2.59610343836909    0.84699102129020
H          -2.87881734861336   -2.16215545228875    0.66116986199985
H          -1.45883142107967   -2.41434770004445    0.05721242228143
O           2.27148015804227    1.05374367035319    0.28939954176599
H           2.28650433397168    0.98292611313422   -0.69653274236294
H           1.48820783364236    1.60993233034313    0.48184486081696
O          -0.74781154788717   -0.94436224141100    2.24036049048158
H          -1.28812575483034   -1.73203460921643    1.82210021282175
H           0.19691283989256   -1.02670233173620    1.83829020836936
H          -1.21883350789221   -0.12158770965135    1.75136611351443
N           1.82123533317946    0.80088856286930   -2.36062733280182
H           1.94757657861115   -0.08035892279107   -2.84287199050712
H           2.07347927706824    1.54177475260576   -3.00222495261300
H           0.82732432007954    0.89583641504209   -2.15417902011779
