    26
        -50.45276626  Gyration_radius:  2.54866792966 Dipole_moment: 3.862
 S           0.51530044144903    1.00598010171120    1.25646145327195
O           1.47606346982670    0.07097423249910    0.70830793177469
O          -0.69958017534854    1.04886226313100    0.32403874351860
O           0.09931262999623    0.72719760672074    2.59777797845457
O           1.08730746715022    2.41870486866326    1.16736400084285
H           1.70552329255149    2.41613678985763    0.34881594630592
O           0.97003013405604   -1.52256457806688   -1.31518430753519
H           1.13322070880247   -0.91881374836870   -0.55275863337164
H           1.57716667662572   -2.25550686984491   -1.19552001193918
O           2.55154720328763    2.07595402702722   -0.85623624282370
H           1.85434812871743    1.88005782377398   -1.54705088577984
H           2.83904733654982    1.21316175881967   -0.53695573904101
O          -1.57053205498867   -2.36342323833322   -1.05841077067220
H          -0.63468976452175   -2.08411381662723   -1.16817420707341
H          -1.99252935997209   -2.25770601777187   -1.91224526139968
O          -1.35611819942553   -1.41046644510155    3.15479726030661
H          -0.70796152472808   -0.68148965193419    3.06041197336408
H          -1.85051005534966   -1.22280193009608    3.95498244698083
O          -2.37918768190908   -0.68231460918806    0.82813050347055
H          -2.10750826560291   -1.05236205265454    1.70482483029944
H          -1.47080746645751    0.31570613760976    0.56831162535940
H          -2.17044157544908   -1.38066708557390    0.16031419569023
N           0.51340043437362    1.29037077483610   -2.35734587481187
H           0.13192330276514    1.69854296318088   -3.20045945128317
H          -0.17763487414565    1.37038962835512   -1.61716878383934
H           0.66330978176140    0.30019106737860   -2.51702875015051
