    26
        -50.45448267  Gyration_radius:  2.36896402789 Dipole_moment: 2.249
 S           1.74891544657487    0.40435787408978   -0.06770817061011
O           0.69683566589582    0.51707596904978   -1.05066517790993
O           1.59868158970774    1.28707389194977    1.07035984807627
O           1.95033869807910   -0.98819138351405    0.33990466254210
O           3.08044172976209    0.83899481059726   -0.80599829145680
H           3.72649322297078    0.84825164114482   -0.10710045471235
O          -1.97849878560043    0.46595276777276   -1.81127676474010
H          -1.10304958527214    0.72663483190620   -1.48119418762753
H          -2.49897352227070    0.22617728136991   -1.04086792790331
O          -1.56178137826270   -0.66492846903890    1.10382038501303
H          -1.50545681203730    0.30969685682103    0.88999688718613
H          -0.98536488879100   -0.74148226143094    1.89633716385434
O          -0.30849992635141   -1.38996255635919   -2.75131800608989
H          -1.12631198363464   -0.85156387757247   -2.71278340862133
H           0.39870513380152   -0.73770447450193   -2.64551171789239
O           0.54343548145081   -0.55478606141514    2.73276051378088
H           1.13354885033878   -1.28529586872851    2.52879203458453
H           0.93775169560836    0.21506105922704    2.28213954460448
O          -0.16192969594029   -2.15320107195002   -0.33600165183458
H           0.75890190249169   -1.77353153117933   -0.06898215530420
H          -0.84566964261125   -1.54533326855235    0.21603805559160
H          -0.26522987562031   -1.94288629852958   -1.34898791541038
N          -1.17494501058754    1.94723226200515    0.77740156567609
H          -0.15829662550190    1.88687357418471    0.82160007091827
H          -1.48613793764558    2.44822839795502    1.60082167013965
H          -1.41390361580538    2.50725598206847   -0.03157658142763
