    26
        -50.45296541  Gyration_radius:  2.61645036061 Dipole_moment: 2.351
 S           0.40500066087568    1.17314003791407    0.37884469395178
O           1.50661784707657    0.59800440063521    1.11777389583080
O           0.61332045586772    1.14517138297100   -1.06315592644356
O          -0.87512629070613    0.53448543174376    0.72741122459064
O           0.23653431517186    2.66355911500503    0.80315580506974
H           1.11835686065400    3.03473522043091    0.55660196257808
O           1.68728823176136   -2.04658722334278    1.16960631088976
H           1.66905725242010   -1.06745409121157    1.09086323782332
H           2.31802198121388   -2.24001254692774    1.86553037119612
O          -0.91535741198571   -1.94231764842194    1.82479916198581
H           0.00607492339235   -2.20184024235669    1.61407056097006
H          -0.92991065158546   -0.98416723802331    1.64934042611466
O          -0.71291384561401   -0.23743233912756   -2.78143654984354
H          -0.09532839867054    0.23541782390425   -2.15799691835121
H          -0.84703141632929    0.35722123328914   -3.52204624943274
O          -2.58740343144968   -2.64141363663581    0.00381291212012
H          -1.89593652628195   -2.48710313986876    0.72726544857233
H          -3.40673295469937   -2.84474574470041    0.45868343234614
O          -2.47361426391147   -0.33143526501982   -0.97392431557822
H          -1.86555462366220    0.11904968701255   -0.25059158948187
H          -1.85540905867294   -0.36315957526955   -1.80043289468722
H          -2.57872047567010   -1.32213701344304   -0.63136179451362
N           2.67864939603708    2.87010152600966   -0.09309754658875
H           3.50464289048461    3.42897195257693   -0.26953704097643
H           2.37067844356142    2.45040873627663   -0.96359124160429
H           2.92479610067675    2.09953915654797    0.51941262341864
