    26
        -50.45260469  Gyration_radius:  2.4781478123 Dipole_moment: 2.187
 S          -0.25430673168603    1.52177161773666    0.96723683923316
O           1.18231224017158    1.38789778744915    1.03605858766184
O          -0.74728514701389    1.52002232433221   -0.40550433565316
O          -0.97629993236753    0.57703204180472    1.80278801286368
O          -0.60587911800927    2.94805483646533    1.55833673210625
H          -0.00833655878639    3.52444237948012    1.09410131953273
O           0.94031990694191   -1.24725192875940    0.42816592486404
H           0.86592770282070   -1.05846224205827   -0.53419163231808
H           1.07000033332917   -0.38062000242712    0.84287531351065
O           0.62497135285984   -0.18505617412408   -2.00386473825195
H           1.55693173945489    0.10832540928287   -2.04988596220101
H           0.17370751928090    0.55556439161253   -1.56141129716682
O          -2.29089070685606   -0.34278253570639   -1.46213872045871
H          -1.60613542349997   -0.80595982165012   -1.95860677453179
H          -1.86386202380580    0.49342268979066   -1.17182981535431
O          -0.87406739832971   -2.90593514927575    1.25790264279718
H          -0.11445715142963   -2.34447200054486    0.93079981988883
H          -0.69567605759489   -3.07855873708119    2.18431356609021
O          -2.58816637155696   -1.10032561634803    0.92743114172146
H          -2.58026325957562   -0.88647289652924   -0.08778134662957
H          -1.98124338136641   -1.94003236296921    1.06522169003276
H          -2.01112238231528   -0.33885991099749    1.34513280179486
N           3.02306419643354    0.89373738794544   -1.24597880878556
H           2.52540843753489    1.16897394733649   -0.40060932348253
H           3.51931165294985    1.70730974936853   -1.58812915195253
H           3.71603657242152    0.20823482586732   -0.97043247531377
