    26
        -50.45296541  Gyration_radius:  2.61646413464 Dipole_moment: 2.350
 S           0.21387416806305    0.74596729089510    1.03995305545821
O           0.78888744034763   -0.36370568219152    1.76683650283115
O           1.10025267674970    1.26821237565758    0.00789469544545
O          -1.09708404106773    0.39865747325291    0.46650575729834
O          -0.08173110453058    1.90482349066171    2.03967166048304
H           0.82175752439397    2.08739877337919    2.39540909750819
O           0.81514739419610   -2.72489116489390    0.56125938467943
H           1.01628587871739   -3.35657333081123    1.25412420904374
H           0.87691814489572   -1.83915121672714    0.98184042944941
O           0.73180292727831    1.15427218048327   -2.53655642815513
H           1.00108791728361    2.01585964002678   -2.86106985717265
H           0.98311501947522    1.13329104243041   -1.57215211777846
O          -2.35957289313692   -1.57809930248018   -2.36880992453980
H          -2.10577663052997   -1.93690318743904   -1.45658512824475
H          -3.30391338600016   -1.71973268767466   -2.45647279557411
O          -1.76826393083643   -2.19364963503394    0.05423081533201
H          -0.87285901319759   -2.58328493819647    0.13899383996015
H          -1.65694687169718   -1.28666157807332    0.39195905494019
O          -1.69059811708740    0.79967192564256   -1.91815052557632
H          -1.49735173239701    0.72015054691293   -0.89238959305228
H          -0.74866615831451    0.94799908099487   -2.31438341198992
H          -1.98934817115268   -0.17253542084020   -2.19303941992131
N           2.49242476362884    1.78839121731592    2.45175036907526
H           2.37657751364832    0.79743525656238    2.63647459130651
H           3.32045336343023    2.11950704182620    2.93177207606199
H           2.63352731779496    1.87355079828718    1.45093365315685
