    26
        -50.45260475  Gyration_radius:  2.47815092967 Dipole_moment: 2.193
 S           0.16593808464370   -0.16248052166432    1.80615621025601
O           0.16391432561742    1.27433564643458    1.65736593335083
O          -0.99956956576192   -0.78643812783521    1.19001732783532
O           1.40426445662262   -0.79796274172690    1.38820813564425
O           0.05370200110836   -0.45764257265825    3.35778109809069
H          -0.67172281842283    0.09509082742426    3.62795145063072
O           0.87562027238482    0.97988579901949   -0.94634217085150
H           0.82646761076804    1.14734686420164    0.00727050831766
H          -0.05347848701053    0.81184184640505   -1.22179988799396
O          -1.73340217752104    0.42749035526096   -1.11923732459427
H          -1.64913266126199    0.01977050650630   -0.23912203141054
H          -1.99170442289722    1.34989344328316   -0.92127557610135
O           2.53583909858383   -0.74180444581783   -1.95184478733164
H           3.41677326440512   -0.47397738664912   -1.68336327333528
H           1.92052186059370   -0.01870843058079   -1.63913341894674
O          -0.92938722023150   -2.42149584500013   -0.88139445760311
H          -1.21068848605750   -1.78714585735155   -1.55100570710844
H          -1.09986811283729   -1.97010449487276   -0.02520231748555
O           1.55387046922520   -2.48366775342617   -0.43223214848031
H           2.01302917031666   -1.86446597895751   -1.13808638402872
H           1.51734634983902   -1.87036118269438    0.41027050074578
H           0.55935241412276   -2.57492182243593   -0.71346565912170
N          -1.77650089400403    2.88560029978821    0.08271855316309
H          -1.11668378858280    2.47184676677427    0.73961102210979
H          -2.49953148207630    3.34475420627509    0.62273951793814
H          -1.27496926156454    3.60332060029830   -0.42658509368785
