    26
        -50.46933010  Gyration_radius:  2.44147171005 Dipole_moment: 6.749
 S           1.18351170860220    0.41797023377964    1.44830554807558
O           2.43616390875279    0.13102312728913    0.77298125952902
O           0.47983732529213    1.51302661520980    0.77701687472872
O           0.34439021415113   -0.74060278664845    1.63812870972122
O           1.55444338201957    0.94665206349458    2.88557490344514
H           2.20764374902606    1.60446912026580    2.67659499878875
O          -0.32365466500766   -1.96143036643573   -0.66709262998906
H           0.51351603785055   -1.90704364484256   -1.14501078092989
H          -0.12582329807834   -1.61777281955011    0.22358740269341
O           2.16960853131613   -0.93682598256141   -1.56921740412151
H           3.00527039772729   -1.30746119659416   -1.85645432625515
H           2.32270452823396   -0.58831887609138   -0.65157448946695
O          -1.85585428798344   -0.06298794678599   -1.76203253376868
H          -0.59934012738748    0.65836176228284   -1.93243025411513
H          -1.49359919297990   -0.91272705007078   -1.42502187835430
O          -2.27928804957862   -0.94313886752866    2.22583905674469
H          -1.30660429218765   -0.89645049070054    2.19187465083240
H          -2.51596296936770   -1.77540345947031    1.81119931600981
O          -2.24616142676842    1.17493143559330    0.52084045450968
H          -2.19792918102402    0.40829560538574   -0.95623266051059
H          -2.46777226379269    0.49840483495964    1.18957081906718
H          -1.32814696958567    1.42640499513194    0.71243920617587
N           0.40394285082532    1.12766453926158   -1.83426840607560
H           1.12468640698679    0.41022789635454   -2.01562130961413
H           0.48192575396267    1.39961432213049   -0.81941498468199
H           0.51249190899890    1.93311693613924   -2.43958153244386
