    26
        -50.45772501  Gyration_radius:  2.4831836411 Dipole_moment: 5.325
 S           0.70595696069791    0.52687654281241    1.35468206972404
O           0.56484214421871   -0.82914670716361    0.78560157106864
O           0.13095600428818    1.49524076785218    0.40044707887192
O           0.12027857494195    0.60803675705169    2.66518585110249
O           2.21111687466985    0.83484130857349    1.45548432088555
H           2.47766495193049    1.04805190349489    0.49519256689745
O           1.37306892518767   -1.26155036246098   -1.61402256043486
H           1.09488496797729   -1.08709742934789   -0.67072055297034
H           1.66300311968544   -2.17507992078728   -1.63196768043594
O          -2.00320101035487   -1.33825353545756    0.68973600815055
H          -2.32349488768313   -1.02932638716194    1.57172144264928
H          -1.02027772230288   -1.34326119733200    0.77837271362576
O          -0.86759114856242   -0.44502307926559   -2.80590848257321
H          -1.34907124195028   -1.24284198032253   -3.03325459887123
H           0.00454279884773   -0.73157597537088   -2.44643615707939
O          -2.35443746710863   -0.21447596084853    3.04504600240802
H          -1.46195984878512    0.19399875970248    2.96599711192152
H          -2.35522546479178   -0.67614207812240    3.88510871778888
O          -1.91220777440080    0.69608653104773   -0.73438913164677
H          -2.09720876830699   -0.18150328740134   -0.14118562033722
H          -1.07269726206268    1.12960447428716   -0.24333344747909
H          -1.55643456096121    0.34866437128897   -1.61635485145000
N           2.56318466045575    1.36701861614212   -1.04155230134445
H           1.72143158893348    1.92804952464473   -1.10085796798535
H           2.40687976217602    0.50771838943527   -1.55805399469451
H           3.33599585540916    1.87108998428353   -1.45453809742950
