    26
        -50.46516746  Gyration_radius:  2.53920851193 Dipole_moment: 5.798
 S           0.06645087070996   -0.56717450893702    0.23870745359803
O           0.67524352166629    0.72837719479317    0.86400759337462
O          -0.55962547363361   -1.35207406659995    1.27116871029754
O          -0.86693531787026   -0.13872280197221   -0.79905665824975
O           1.23649449669170   -1.22332772876827   -0.36720818387939
O          -0.80161986939462   -0.57222166059973    3.80162371307703
H          -0.04099635416106   -0.88937107640356    4.28988824279081
H          -0.74020975755925   -0.97410585235808    2.90982906714957
O           0.83861970851643   -1.82851417240428   -2.96948778035490
H           1.00289660546899   -1.74275135524148   -2.00933736402374
H           0.11197275362759   -2.44710795632621   -3.05797407019327
O          -2.87986014037606    0.30995964807289    0.88403541504995
H          -2.26028799258730    0.16570911022083    0.14346517874953
H          -2.88897512820151   -0.52148693935079    1.36639986262323
O           0.24954487787729    0.79293333875827   -2.98409267558909
H          -0.36532557858317    0.59116108670784   -2.24053821257997
H           1.46279773918075    1.01990519737971   -2.14453118099946
H           0.44508741997816   -0.09622650123480   -3.34460689584706
O          -1.12432156830624    1.67184243442458    2.34621182355458
H          -1.05857680335351    1.05056990397696    3.09867745967108
H          -0.03847582160210    1.16661928556963    1.47180856846076
H          -1.92007375597890    1.37217182260426    1.84695926623394
N           2.22663425182021    0.92734032864309   -1.35648470461215
H           3.17470730244433    0.95291230555965   -1.71807967387283
H           1.97983176722151   -0.02264618581278   -0.91054856052448
H           2.07500225640147    1.62622914930680   -0.63083640390019
