    26
        -50.46933038  Gyration_radius:  2.44174504413 Dipole_moment: 6.750
 S           0.03795852716735    0.10145889128060    1.91269099118875
O           1.28157118395818   -0.19695788277658    1.19919798172719
O          -0.14087911828385    1.53634825285591    2.04184440493978
O          -1.09970432591310   -0.57928685329922    1.34265091457738
O           0.21814644695718   -0.46499237290404    3.37181022746041
H           0.87310214631319    0.12895160861006    3.72034664353712
O          -1.32457870385124   -3.03891885885232    0.26158775847475
H          -1.30954431255123   -2.22827981059152    0.80202995113803
H          -2.03564484376815   -2.91850118400172   -0.37123366648874
O           0.40147631400589   -0.50730844582307   -2.47778302600547
H           1.09472437020159    0.54514584560954   -1.74207654432604
H          -0.51504515859651   -0.31926704837003   -2.17528285996588
O          -1.74940647907546    0.30925249538313   -1.11487376513169
H          -1.62094420402296   -0.07063055877339   -0.22622640119755
H          -1.62134381191748    1.25919863365141   -0.99927560949958
O          -0.64312788600622    2.75771261572982   -0.18389406863607
H          -0.97156756900722    3.63995367066693   -0.00470798440355
H          -0.51568441551616    2.32559409928260    0.70151928579508
O           1.11458626807393   -2.24438094580917   -0.64162254367029
H           0.69394530736557   -1.29089695923608   -1.94044366647832
H           1.28092076280720   -1.62778085301709    0.08976378552971
H           0.31657833232296   -2.74134107880990   -0.37689250282597
N           1.49219688616440    1.26231109852135   -0.99131644528786
H           0.80690324358615    2.02508126877559   -0.86620826610575
H           2.40785867340420    1.61517073241291   -1.24428241889106
H           1.52750238618398    0.72236362948220   -0.08732218545840
