    26
        -50.46516744  Gyration_radius:  2.53930917657 Dipole_moment: 5.797
 S          -0.09572923871837   -0.60407990402047    0.09523316870451
O           0.34639611767714    0.40140332165335    1.20573600358025
O          -0.48246892842826    0.19068850459536   -1.06691804147133
O           1.14114503875100   -1.35055539618534   -0.18672715855847
O          -1.16366268788413   -1.43218734302307    0.59291869547002
O           1.75738419520919   -1.35726129824442   -2.81675115897404
H           1.06507822447383   -1.79114765235316   -3.31769375235950
H           1.53128861784115   -1.49056341208222   -1.87478489360446
O          -2.94027915635604    0.70013719948197   -0.18138013134464
H          -2.09486021417873    0.57971608281199   -0.65466926273549
H          -3.23238134609734   -0.18942549010453    0.03626788360944
O          -2.31826210650007   -1.11786824760489    2.96726619965911
H          -1.85590001442963   -1.66539432084432    3.60287572297589
H          -1.94700930004465   -1.34630396530911    2.08942398573032
O          -1.78391878592586    1.38113942340871    2.11526749404262
H          -2.09342250125045    0.62659574585905    2.65520502868956
H          -0.49955264256022    0.84779409553467    1.60061768656448
H          -2.33943225414763    1.34691436857726    1.30143485788321
O           1.50903613138549    1.28268006166548   -2.38177700929001
H           1.73609053669716    0.45822513271844   -2.85864163785457
H           0.62998664863749    1.06801136428125   -1.99082794550158
H           2.30059127977393    1.10070330777104   -1.12945211506582
N           2.66968598774599    0.71022562945729   -0.16797568189074
H           2.16405033195187   -0.23944871722042   -0.09871805386802
H           2.31625799138899    1.27386405561282    0.60359015311843
H           3.67988808499669    0.61613746356936   -0.13952004751567
