    26
        -50.46933033  Gyration_radius:  2.44172356993 Dipole_moment: 6.755
 S           1.61072980599446   -1.00653508674575    0.25303121483236
O           2.39143571112333   -0.40841133078660   -0.81477813188830
O           1.24838404234615    0.00375027241729    1.24943319985068
O           0.46809303336832   -1.75693063608548   -0.20952891574610
O           2.55674533557776   -2.03123698174686    0.98604459793613
H           3.33362867517820   -1.50061835902994    1.12059793730970
O           1.06275194879133    1.20970503487042   -2.33647270608326
H           1.55935712411043    1.38641821388744   -3.13676901441018
H           1.59722237401034    0.55065534493600   -1.81997796103479
O          -2.14411850754173    1.37699245684428    0.25202122013895
H          -2.07400823488451    0.74174675523381   -0.49526631626972
H          -0.80957638403696    1.96126024291279    0.16819670246310
O          -1.26072306666680   -0.27992648864672   -1.65183041453991
H          -0.64694294730941    0.25118085718008   -2.17465830738919
H          -0.69656202037066   -0.91155522123706   -1.16880381291272
O          -1.72489025969923   -2.62143925066701    1.09937057826233
H          -2.38482094439787   -2.63390051506350    0.40299874596528
H          -0.87054695491143   -2.47794472183472    0.65340426913800
O          -1.33080488148147   -0.17097079556134    2.21148613378179
H          -1.60485519131932   -1.08446729978553    2.00104383989633
H          -0.37660866521945   -0.14726586688570    2.03337262380496
H          -2.02125434453938    0.82591959128650    1.07027526858273
N           0.27961741995311    2.17157680387278    0.09459831242136
H           0.56623202185442    2.09296639188584   -0.89471902604131
H           0.74714488165621    1.38626987425838    0.61878278419634
H           0.52437002841457    3.07276070449031    0.48814718773477
