    26
        -50.45332593  Gyration_radius:  2.5531608102 Dipole_moment: 4.718
 S          -0.05454709273033    0.98015472712673    0.69107652621525
O           0.89918877144479   -0.05877395852793    1.09632483223048
O          -0.12242613036860    1.04745206610999   -0.77272060078708
O          -1.36605620893778    0.74157395391287    1.26032063309226
O           0.45157588046309    2.33923137238091    1.21384400084586
H           1.44836988167937    2.26227531281610    1.12924578298227
O           2.90287772189887    1.70281701975977    0.84558362439165
H           2.54398391037832    0.81677506398220    1.00844378035184
H           2.94665147767474    1.79173380206484   -0.13734457269256
O          -0.18953089924126   -2.25720642752077    1.78752998648722
H           0.54851590578079   -2.87056634235304    1.77597913843146
H           0.20479963858735   -1.35321562828888    1.59741426951786
O          -3.40858569772977   -0.58915515783725    0.52876363038144
H          -2.65998525861857    0.03508232845195    0.76077119517923
H          -3.91830265057819   -0.68430962410802    1.33615840912611
O          -0.66206759009477   -1.17463613712239   -1.89347373018407
H          -1.25262053058566   -0.91976627326618   -2.60598848151651
H          -0.39769506800165   -0.31319216225541   -1.44465441031263
O          -1.85255139677666   -2.46001015957945   -0.08328250997219
H          -1.17626511738140   -2.45027323042718    0.71519344150429
H          -2.58795680202458   -1.76252417052850    0.17498475892574
H          -1.34806730798830   -2.00642531493507   -0.87388404638050
N           2.42485609852379    1.80189110792522   -1.80468371979751
H           1.46038113604055    1.56444885871930   -1.56482588441154
H           2.75388014132297    1.11550764405770   -2.47180325093459
H           2.41157719725717    2.70111132943356   -2.26897281268798
