    26
        -50.46933029  Gyration_radius:  2.44171729607 Dipole_moment: 6.752
 S          -1.10420517618913    0.53030239788885   -1.47322143442526
O          -1.06243972784793    1.38252471003974   -0.28299650178292
O          -0.04528575066761    0.89622401070818   -2.39641251648861
O          -1.13065503427472   -0.87427433158164   -1.14297815846560
O          -2.46639285191189    0.84918503126389   -2.19789887625915
H          -2.30765001303983    1.73359090226880   -2.50746792445774
O           2.34071045629332    0.32777886745314   -1.57063311872679
H           1.44302431320662    0.50686432802307   -1.95661599159071
H           2.95940945948565    0.37910292033842   -2.30064037889604
O           1.07812397153091   -0.40832942219278    2.28649663415622
H           1.15978743149787   -1.10134684479668    1.59373119981369
H           1.35001089629879    0.76191545584492    1.45816498598944
O          -2.34327477925259   -2.19152199809415    0.87292361347570
H          -1.76437282760235   -2.94610820735634    0.99961777380276
H          -2.04939996526622   -1.76674767751866    0.04671172866131
O           1.15908221962616   -1.74732586304619   -0.02681523681360
H           1.80871073961139   -1.27444419471429   -0.56211526382828
H           0.29986399030379   -1.54837263000457   -0.44237574331443
O          -1.49649704687655    0.07838448992043    2.10854982076051
H           0.09977423841036   -0.28516329404794    2.41286451150387
H          -1.49028412966945    0.61890876957767    1.30196463970157
H          -1.93870293388950   -0.75378381807532    1.85195162546272
N           1.39172013030437    1.55139382445691    0.67654553683554
H           0.41102191026978    1.61404286105007    0.29664849052718
H           1.99823962893371    1.22428180304233   -0.09304609559136
H           1.69968084071528    2.44291791955556    1.04704669995160
