    26
        -50.46185048  Gyration_radius:  2.40110616974 Dipole_moment: 4.323
 S          -0.05564282829092   -0.60866793812316    1.71556878030646
O           0.57872926792252   -1.51578842639901    0.76264565977182
O           0.67431512930819    0.64997892898931    1.79218507937033
O          -1.46359605843120   -0.42441490136070    1.46454385195774
O           0.07679697742490   -1.29648735392150    3.12899630426912
H           1.01902060746057   -1.39867393242466    3.20416505718451
O           1.19856389032638   -0.17593896456735   -1.43276245853168
H           1.05190685949548   -0.72175506787767   -0.62819081963234
H           1.76899917868078    0.57861978973636   -1.12133960966066
O          -1.06542622384306    2.14093849553165    0.52376916305615
H          -1.88753637201241    1.86264920427543    0.93879645092803
H          -0.36586293171768    1.67381782565420    1.03786948393298
O          -1.03792370838534    0.89353750758932   -1.71496573731864
H          -0.07123291825957    0.44621312729758   -1.69788004028945
H          -1.06146766264796    1.50489084985748   -0.89722979459321
O          -0.60809359067071   -2.88394906565924   -1.22014802462359
H          -0.16549355888673   -2.55798576207067   -0.41283468141921
H           0.01254795682505   -2.73442972063099   -1.93709852002827
O          -2.44851906706175   -0.99278634936333   -0.91533376060964
H          -1.71681784482543    0.09608501048194   -1.47449202187155
H          -1.94528942409500   -1.80829115418114   -1.14558470540208
H          -2.26687932400117   -0.85495442193975    0.04067134668606
N           2.39443124186759    1.85515319468273   -0.20616812761670
H           2.03227110907278    2.77557881142719   -0.42193755341298
H           3.39020987347459    1.94156028007411   -0.04940010630975
H           1.96198942128069    1.55510003291394    0.66615479386209
