    26
        -50.46185052  Gyration_radius:  2.40111282867 Dipole_moment: 4.323
 S          -1.27781824794365   -0.14121831730934    1.28974325480112
O          -1.46909082383157   -1.01838429201785    0.13762974712737
O          -0.02764284181253   -0.45124805229682    1.97079002766484
O          -1.40285627843737    1.25672301810844    0.95897903693336
O          -2.44098512322740   -0.48439550231949    2.29850875724310
H          -2.29935761404651   -1.41312639382739    2.44441258948856
O           0.80037159482619   -1.18778569447086   -1.21143611108371
H          -0.05597860629519   -1.21899802589663   -0.72929080432642
H           1.47212591066974   -1.50161268583809   -0.54664765363872
O           1.31530755965239    1.66751681158448    1.21823914263651
H           0.88735514363896    0.85603941878767    1.57908244831188
H           0.66874769344990    2.36290061234894    1.37293771130450
O          -2.11776902430302   -0.29848955177339   -2.36688841257406
H          -2.06327163604553   -0.62374289375105   -1.44756944507584
H          -1.50749207802742   -0.84018654730500   -2.87252934674613
O           1.21809761571799    1.27004212547936   -1.31182115695313
H           1.09573842797583    0.21281619794869   -1.35686193833368
H           1.38344181172551    1.47582869641230   -0.32523663214615
O          -1.13817560362718    2.03110807283846   -1.54849307020997
H          -1.38178053446558    1.89600404935185   -0.60597769925222
H           0.24111166170293    1.67089130619265   -1.51048985249550
H          -1.59866030459146    1.30332588680838   -2.02766764302087
N           2.34674956850646   -1.71117942843913    0.88498232972010
H           2.62983880843581   -2.63357955496487    1.18934963486172
H           1.59270926636494   -1.39527761388946    1.49295355866373
H           3.12928366398360   -1.08397163175744    1.02330152709966
