    26
        -50.46198065  Gyration_radius:  2.42945247107 Dipole_moment: 3.727
 S           0.68608314739506   -1.07408027123123    0.19936610098007
O          -0.11934984608803   -1.61742166602335   -0.88703412882334
O           1.20861145453121    0.24830448841384   -0.17686855398093
O          -0.05918382502209   -1.00597798124673    1.44300823228709
O           1.90909299266162   -1.99764334196267    0.43363565599390
H           2.30895646860721   -2.03095364030877   -0.47888806407758
O          -2.48852153223969   -1.48950334093219    0.13752774327794
H          -2.24345369256398   -1.73976514629888    1.03481240244297
H          -1.65083568529502   -1.61800287597851   -0.37950322049610
O          -1.18393688971661    1.19797890851796    2.27354415999448
H          -0.75319987373195    0.31763303581784    2.14670348814811
H          -0.48021565573269    1.84136584034463    2.03664418933121
O           0.93899000644715    2.45146547092987    1.24053692852790
H           1.13704271234044    1.62828892908910    0.73497108271172
H           1.70215628196930    2.61314863468938    1.79637816644846
O          -0.65412030175754    1.72513481139035   -1.27042850023653
H          -0.33848888469687    2.57884057342323   -0.95784224960538
H           0.04558616613020    1.08091317492857   -1.00227258170228
O          -2.59311991845194    1.02819728358869    0.23169073573849
H          -1.90815334233606    1.32798347968455   -0.47081501827353
H          -2.66699607783831   -0.01047009393835    0.14121380374271
H          -2.08537061714583    1.17256704383830    1.16973725392846
N           2.40597312791384   -1.74449493248227   -2.11264187089174
H           2.72371938274445   -0.79876272639384   -2.28064244748328
H           1.38985977635620   -1.74220107570190   -2.15893311657434
H           2.76887462552580   -2.34254457214636   -2.84390019140615
