    26
        -50.46198055  Gyration_radius:  2.42951987903 Dipole_moment: 3.727
 S           0.37896885506174    1.15312954939410    0.43636991413407
O           1.21317133940023    0.15079912309354   -0.24380099230606
O          -0.62562628991023    1.67067246161340   -0.48400064418623
O          -0.22120450487389    0.60357660273041    1.63827273307598
O           1.31653217698024    2.31081309111618    0.86564514631183
H           1.62017082902813    2.65707729040223   -0.01847538375836
O           1.66686476791623   -2.29403158964783    0.62364183570372
H           2.48555131412710   -2.35055588539283    1.11760240095913
H           1.59240663679378   -1.35823098060353    0.32171851862133
O          -0.25252604474912   -1.51537910800542   -1.63032842340271
H           0.30825536657493   -2.29096368268028   -1.53001566482432
H           0.26246133311811   -0.77460927564397   -1.22718194980239
O          -2.78302286927066    0.65136410227280    0.50910121906355
H          -2.05484674618816    1.12361097232896    0.02706323958344
H          -2.54829441304047    0.75728557353304    1.43727781047440
O          -0.63155635559505   -1.95556823966077    1.94548229802775
H          -0.46960527226928   -0.98369526989017    2.02224784738717
H           0.20099249355016   -2.30359256788273    1.55679778359170
O          -2.18610051423965   -1.74836094215085    0.01559275777157
H          -2.54852895748331   -0.78024308235615    0.17045746637472
H          -1.50154047402995   -1.67835614326280   -0.74527901546493
H          -1.58757570013486   -1.94515052494837    0.88834506029874
N           1.66585306385765    2.77827581221751   -1.67478355029541
H           0.68904816828105    2.49671027628263   -1.70896337763771
H           2.21728131543771    2.02412071489207   -2.06305165375920
H           1.79287045167369    3.60130172223540   -2.24973537593606
