    26
        -50.46185054  Gyration_radius:  2.40111358683 Dipole_moment: 4.323
 S           0.68637799979131    0.82375548629203    1.47193735379738
O           1.39428728646207   -0.38532929866518    1.05920864719283
O           0.73851535445824    1.83403693300971    0.42336877298053
O          -0.65564909806587    0.56109333205389    1.92935535629754
O           1.48934775490491    1.40290142262179    2.70001382212973
H           2.35340671791551    1.52498136194160    2.32268335106015
O           0.71859053206555   -0.98119187217731   -1.42827797327973
H           1.05967273282385   -0.78797823637600   -0.52655424764782
H           0.93211056730326   -0.16398034637707   -1.95577340331933
O          -1.74375208214375   -0.79057803392894   -1.07320707766589
H          -1.83316129014485    0.21024286147105   -0.89044744041105
H          -0.71405122588481   -0.93876337348423   -1.30222184866094
O          -1.75886391419403    1.66739578515207   -0.34746717723644
H          -2.21553205609486    1.66085980502305    0.49925420437584
H          -0.81517727771282    1.82663670116818   -0.11100146672103
O           0.50646894015344   -2.91643475343654    1.18928903395315
H           0.94108915318980   -2.04757469337603    1.28976257311925
H           0.77341266806637   -3.24424370589607    0.32741284115123
O          -1.84880086106644   -1.68916198813314    1.24383842022367
H          -1.50832037979173   -0.87750124278833    1.68111322515827
H          -1.88363727162541   -1.25318867574672   -0.11347848780267
H          -1.10451634178168   -2.33216059084129    1.30643026749638
N           1.10820451159725    1.45038176433385   -2.42623825995649
H           0.31755842985177    1.86198567602180   -2.90617981554603
H           1.95126029165380    1.76711110071106   -2.88726199905061
H           1.11115887827207    1.81670460143018   -1.47555868164023
