    26
        -50.46198072  Gyration_radius:  2.42929785844 Dipole_moment: 3.732
 S           1.19769582308301   -0.28751885370974   -0.38245828674758
O           0.77310798770462    0.28196993090026   -1.65500400963754
O           0.81621534844578    0.60831409426913    0.71993163189994
O           0.66055930403354   -1.62081643802962   -0.18049960689465
O           2.74415889780349   -0.39637897090154   -0.36717424407395
H           3.01062379168274    0.54109515581039   -0.57612024771194
O          -1.64206936444528    1.45880369355712    0.43659230632261
H          -1.85980210504687    1.52936507770732    1.37131928504981
H          -0.67835711615613    1.24129768610068    0.41520668295956
O          -1.46511510619396   -2.06102778236435    1.26872001771113
H          -1.29274011835352   -1.43700226439356    2.00779248246075
H          -0.61375963265593   -2.07579858083933    0.76711481539231
O          -1.12629665554619   -1.34217723792480   -2.31533546722424
H          -0.41986247102448   -0.65273910478503   -2.21180155691198
H          -0.70523989053368   -2.14850715175196   -1.99831245506570
O          -0.57001030834572   -0.09699053754357    2.84518702722799
H          -0.00184382051783   -0.31515408214451    3.58485022130174
H           0.02854035033088    0.17520274726250    2.11025471846027
O          -2.67473004587492   -0.70562747451025   -0.42941442237882
H          -2.27083258066196   -1.35167761637239    0.33081282878048
H          -2.35539908558938    0.23023712091787   -0.15589489439641
H          -2.13530301071357   -0.95799283797307   -1.28819977404560
N           2.78402601682252    2.13220782264780   -0.99906293321462
H           2.47298425669987    2.66225700035537   -0.19535968689725
H           1.95895712104809    1.86026475731903   -1.52813405411535
H           3.36449240400141    2.72839383639823   -1.57501039824742
