    26
        -50.45760673  Gyration_radius:  2.49480505517 Dipole_moment: 2.731
 S           0.60259858199008    1.04143362961802    0.76157345298780
O           1.71067818904619    0.11842179515799    0.60942794914886
O           0.05258654565816    1.41187072609684   -0.55409450413522
O          -0.44607558720749    0.50966618239388    1.62366435322510
O           1.11220550558373    2.34428447084624    1.42697831438306
H           1.82512308724071    2.62201524613261    0.79030140739193
O          -0.78789522509486   -2.10209820019173    1.94095945201086
H          -0.40133520057271   -2.44303199560701    2.74856422709572
H          -0.57855602008431   -1.14246818571734    1.92127036653690
O           0.71007595176902   -2.15209650902494   -0.34794463794534
H           1.18703028035666   -1.34281036820746   -0.06781159528788
H           0.17210539375318   -2.39707073081949    0.42571318178019
O          -0.95695126768262   -1.73367561496957   -2.27461627837847
H          -0.43794668034362   -1.61089146756148   -3.07087735376718
H          -0.30157423593905   -1.95630534835545   -1.54419093157409
O          -2.86600701179952   -0.28947573272434    0.92539937038600
H          -2.10953837516460    0.17530046478863    1.34377701963009
H          -2.71036212160174   -1.22237424171810    1.11530639346113
O          -2.02823608257486    0.36709296098413   -1.37666593189458
H          -1.65671051321880   -0.50237690395125   -1.80609240039464
H          -2.50561956549833    0.09008503989862   -0.50494582682429
H          -1.16045757906537    0.88579860693188   -1.04476554742807
N           2.80410365471749    2.45652128094553   -0.54441032639372
H           2.86218111058003    1.45408314963803   -0.38866165666257
H           3.72249798962072    2.81337994288337   -0.77575720434536
H           2.18607916553122    2.60472179250609   -1.33210130300543
