    26
        -50.45760671  Gyration_radius:  2.49482060172 Dipole_moment: 2.731
 S           1.21303670919620    0.61551814771641   -0.42134537994454
O          -0.03731011138973    1.33481821725680   -0.72129477879266
O           1.41861419740184    0.52596593115100    1.01137192243005
O           1.21761683219981   -0.69326353197007   -1.06381903539421
O           2.37066334469646    1.42879866017994   -1.05250188264143
H           2.30387178881652    2.28505540506411   -0.54938023110918
O          -0.49393761140425   -1.04913048868112    1.97807946192392
H          -0.21618820293575   -1.87622709075029    1.54591083555566
H           0.20119472924777   -0.40157572596776    1.73652063598703
O           0.58674131352808   -2.89613243632736    0.27336555785080
H           0.94058570369918   -2.10073640453521   -0.18186941403212
H           1.34901270745852   -3.39767888282597    0.56539754298458
O          -0.82812881613778   -1.97901206074545   -2.13343330838597
H          -0.84636925188105   -2.68250712537665   -1.47362144325331
H           0.03143282282371   -1.52830865066777   -1.98738260342122
O          -2.80886084449405   -0.47026905486141    0.99217856681718
H          -1.93634686806798   -0.72535013677543    1.42377837478061
H          -3.14840160566029    0.27198414021437    1.49443631795810
O          -2.07301720339668    0.08929565143432   -1.35572864233765
H          -1.69297254817317   -0.78586274088185   -1.74843236376854
H          -2.46179979431297   -0.14367832125890   -0.42140285601850
H          -1.21054240274169    0.67445775112608   -1.14118645903966
N           1.69164937160299    3.31102507234608    0.60805793778702
H           1.57592117697999    2.53210916263496    1.25025664293423
H           0.77222789879660    3.55964433349438    0.26564753987273
H           2.08130669414751    4.10106013902180    1.10639706123458
