    26
        -50.45760674  Gyration_radius:  2.49479181835 Dipole_moment: 2.731
 S           0.03026491301997   -0.82806618427763    1.15808305560155
O           0.32619548257872   -1.47615974938654   -0.13155137584810
O           1.04731153653760    0.15414806140375    1.48018770734327
O          -1.30978109636198   -0.25377445109692    1.14703251312481
O           0.03335908520484   -1.93820099414248    2.23860151126632
H           0.97544677067457   -2.25560380294357    2.18884724194432
O           0.83438734045991    2.11347336863438   -0.30544758194370
H          -0.04398061649928    2.43974016388988   -0.04087903420433
H           1.04376734111850    1.41552581806163    0.35029501065407
O           0.56532746118090    1.20387663472240   -2.70685111981573
H           1.44400493218830    0.99086679649541   -3.02481807944791
H           0.68836340662722    1.61369682964201   -1.79599301063046
O          -2.87021801781053    0.17682986583025   -0.94161432183378
H          -2.50303335895653   -0.13295309082661   -0.08578124177888
H          -2.82799046349277    1.13909838148161   -0.88785248717231
O          -1.70665630179111    2.32865159842855    0.68598597679685
H          -1.54758779991672    1.40502172149558    0.98037929923555
H          -1.84516474471699    2.84262805246473    1.48255079885866
O          -0.87960466396421   -0.79570353453522   -2.17620291947969
H          -0.30738046452637    0.01474389684833   -2.48271873272707
H          -0.37241537718831   -1.16274210247161   -1.31569843817666
H          -1.76374774481372   -0.41483486145913   -1.80498234775712
N           2.54694190662338   -2.23713247319613    1.64361740706754
H           2.52981978254859   -1.22202952147517    1.60109753443636
H           2.48984041719961   -2.58045142647575    0.69320911047148
H           3.42253026407859   -2.54064900712071    2.05050354401171
