    26
        -50.46198059  Gyration_radius:  2.42932049426 Dipole_moment: 3.733
 S           0.15660528514465   -0.02782219152675    1.27995039241936
O           1.20399517387225   -0.19640986936211    0.26124405058078
O          -0.37347390185590    1.32887308006659    1.22760519380682
O          -0.88847834878859   -1.02286994550680    1.12322246707540
O           0.82244507773599   -0.25826915548913    2.66097305422686
H           1.46675944986707    0.50133140192822    2.69905330197178
O           1.26437298996531   -2.09540515285534   -1.56236456895089
H           1.80200596269589   -2.83825159734759   -1.28548131261480
H           1.31886254948611   -1.43110192224881   -0.83560006387076
O          -1.37775651251148   -2.17956916954000   -1.16476524249833
H          -1.26679459393551   -1.90282465746622   -0.22253791907538
H          -0.45749220421302   -2.31666790167417   -1.48036135007320
O           0.45865144092371    0.81796080863814   -2.03319978265740
H           0.92980607804002    0.20114365087077   -2.60229852283644
H           0.75464142810683    0.59575640070618   -1.11696792409037
O          -2.74476971071482    0.90029643123309    0.29395757220232
H          -2.91579735433594    0.08506462471721    0.77763365012843
H          -1.88415827277311    1.22084782413407    0.67089981346672
O          -1.98525139107065    0.09301750894170   -1.97099809970219
H          -1.04552771328931    0.49225007147512   -2.07112036203004
H          -1.80549496138941   -0.93773569920970   -1.71885596876294
H          -2.38341689266199    0.50186800810975   -1.09540829695552
N           2.20079031993750    1.90479029536500    2.19649132796781
H           2.55400004937352    2.67331593694606    2.75204286781434
H           1.32889613531548    2.18686991812595    1.75505331085812
H           2.86657991707695    1.70354131097502    1.46183238159301
