    26
        -50.45618396  Gyration_radius:  2.41751817531 Dipole_moment: 5.394
 S           1.24154868700510    0.55147864136899   -1.25228921741683
O           0.47840251697321    1.72724495639347   -0.83311941403532
O           1.94546636017911   -0.03663784447415   -0.11968946176490
O           0.45276764256375   -0.40494536420962   -1.98428963079144
O           2.34299340384228    1.10240248403998   -2.24111594460162
H           2.61981196932713    1.89434570172007   -1.79410344026292
O           0.44866929368709   -1.85124774366409    1.01508649263841
H           1.03653470312187   -1.20618788778229    0.54917912018611
H           1.02712330209774   -2.42254480633140    1.52317362532782
O          -1.02132148441583   -2.75793125649507   -1.14321941029124
H          -0.37042150090296   -2.42319728263521   -1.77044689022417
H          -0.62484537225559   -2.59039278757287   -0.27386190374108
O          -2.20126821522981   -0.46958720258947   -1.85021506397842
H          -1.29865188278119   -0.32035660340581   -2.19659525585430
H          -2.14831848030228   -1.39485211477310   -1.52766579011297
O          -1.16121780646333    0.05378450544871    2.07246148487784
H          -0.74080100066844   -0.77558463338697    1.77506350856603
H          -0.39161552192154    0.65611323954549    2.27827440937030
O          -1.85878573435149    1.20534953778411   -0.02423041306517
H          -2.14848474416617    0.49958486397899   -0.74955549371888
H          -1.66477458903220    0.69921845489805    0.89874193293311
H          -0.94199220948967    1.52064063561326   -0.34956982065774
N           1.02064191869525    1.55547536769013    2.09276595585755
H           1.68619285095951    1.68213039161443    2.84456376773622
H           0.79257444354819    2.46793882935930    1.71762570590905
H           1.47977147999682    1.03775791791079    1.34303114713676
