    26
        -50.45332604  Gyration_radius:  2.55289676065 Dipole_moment: 4.724
 S          -0.11472990133177    0.35125613060252   -1.14161044536805
O           1.06792360151578    0.67296870483928   -0.33564883912301
O          -0.58073219584997   -1.00271601904568   -0.82106438486563
O          -1.16341129201030    1.33080207235775   -0.93709679078735
O           0.28981945528868    0.38994238339228   -2.62880335928456
H           0.68468142258229   -0.51910467889783   -2.78461421305461
O          -2.56834487490849   -1.06243736470436    0.77391338084010
H          -2.58054457227288   -1.97806595499128    1.06113436033517
H          -1.84619100130046   -1.00494420473466    0.07826873895983
O           1.18004029444352   -2.00906251139923   -2.57292530709771
H           0.50164804512540   -2.08817083035245   -1.88453147933918
H           2.02757412772032   -1.85461177320586   -2.08945126368690
O           0.72722668147990    0.39212972789571    2.17241737573372
H           1.20691507445274    1.13738793070593    2.54100416063003
H           0.86799393620944    0.44955351675313    1.17732300755132
O          -1.94088289586937    2.71354425657592    1.05294229618333
H          -2.81998535042520    3.00223125402209    0.79886088006708
H          -1.56245586643598    2.26991743652499    0.23808815642845
O          -1.76569420038182    0.63269688918098    2.44397143145946
H          -1.91141130778251    1.54263702291346    1.94897327595339
H          -2.15694321741694   -0.09296821340890    1.79968233763378
H          -0.73342253953267    0.49657788028374    2.41326383434656
N           3.18091386018065   -1.11971616555715   -1.00187265084373
H           2.52449703796345   -0.39676309150205   -0.70095921705601
H           3.97296248023741   -0.65520144874520   -1.42756379744563
H           3.51255317831873   -1.59788293951563   -0.17370148817327
