    26
        -50.46933058  Gyration_radius:  2.4417611637 Dipole_moment: 6.748
 S          -0.64635175787705    1.75753968604321    0.39749822569468
O          -0.84298589255446    1.58382891824780    1.82542809232651
O           0.76673055945470    1.59045817967833    0.05142971237682
O          -1.51189755970330    0.93675349965192   -0.41480009390771
O          -1.00839707571961    3.25590837672103    0.07099940548791
H          -0.52596405013850    3.71385824153971    0.74978699692968
O          -0.50505114766535   -0.84224998785438    2.66133845226075
H          -0.70718723741392    0.08825462436503    2.37819433598997
H          -0.86404897195205   -0.93582336066169    3.54491520414975
O           1.25624504889024   -2.05796078236422   -0.86397048895474
H           1.65188396619602   -1.30436656710673    0.32091354587444
H           0.29431796672632   -2.13566704119872   -0.67526384077074
O          -1.23113275657527   -1.70094389586252    0.04976927061971
H          -1.14233940155543   -1.70136733388461    1.01121786212431
H          -1.43308033001032   -0.77576447262966   -0.18205252747845
O          -1.36320789375995    0.26844523469235   -3.02194650672197
H          -1.80406011329051   -0.58361395174255   -3.03998715612925
H          -1.53235287972406    0.63684918905999   -2.13583585567952
O           1.24627237217746    0.16572950945534   -2.26153344857950
H           1.32809766870364   -1.33320295669879   -1.54054095430569
H           0.40116124536622    0.20831330886964   -2.74905491914456
H           1.14788338488374    0.79918177436442   -1.53229863308599
N           1.76229940227538   -0.58759880589133    1.16375657550690
H           1.08509305721653   -0.83799255638776    1.90254398016242
H           1.46672774188933    0.34466721261793    0.77211208928403
H           2.71134465422331   -0.55323604300940    1.51738066599878
