    26
        -50.46258545  Gyration_radius:  2.40942115852 Dipole_moment: 2.826
 S           0.20154301128215    0.78722136757254    1.57321484563113
O          -0.54965595608940    1.71898365353314    0.75492051556554
O          -0.58392057484413   -0.38510720632484    1.93479643274475
O           1.48676321285638    0.44129108746050    0.99755301693096
O           0.51956076913527    1.54276609371594    2.92634332262240
H          -0.35768591296978    1.79746471784734    3.18871773731975
O          -0.10861200938652   -2.80875227620394    0.95748887803965
H           0.33729972086399   -3.37225828597603    1.59108419827742
H          -0.24004863108816   -1.94190673855402    1.40211242897367
O           1.43793528841009   -1.50725915787977   -0.82434757522086
H           1.62870586148816   -0.83752144690763   -0.13633280499167
H           0.86621721241448   -2.15897428324782   -0.37426693833286
O           0.36994631023259    0.11417398947358   -2.45408086170852
H           0.78359893111472   -0.64973139306616   -1.90646251947404
H           0.88989070315116    0.99278629311257   -2.06589456010947
O          -2.56493859564404   -1.34113238121590    0.32976297354947
H          -2.02964831078738   -0.92638735554717    1.02958431548289
H          -2.17119335362498   -2.20921909523627    0.19883180588379
O          -1.79531277751900    0.61569250253950   -1.30427844649502
H          -0.59763319580284    0.25726100486001   -2.07806942671295
H          -2.23595607512421   -0.14742964238941   -0.86923869339940
H          -1.42703097692969    1.13904328470365   -0.55913852518846
N           1.45703929510308    2.05053386670852   -1.26841708492736
H           2.30460690378486    2.50592826956594   -1.58043355632540
H           1.63210909381926    1.57350284578458   -0.37798005052931
H           0.74642008614659    2.74903030566287   -1.08546941760685
