    26
        -50.46933061  Gyration_radius:  2.4417333606 Dipole_moment: 6.745
 S           1.51492969444716    1.11057487656779   -0.36916792338383
O           1.56063865831236    0.22523690316564    0.79641938326380
O           1.99231665299817    0.41713776174901   -1.55197656491302
O           0.22277770073994    1.73064215068120   -0.53809011904580
O           2.53929997514030    2.27309888385273   -0.08289933510302
H           3.36638917212727    1.80932359110790   -0.14649235113533
O          -1.53409329623100    2.65687821254249    1.28428876365255
H          -0.84680680756929    2.49433842109516    0.61290703727118
H          -2.37320750364470    2.55212790326814    0.83090476164468
O           0.41616848908477   -1.45180188401697   -2.40130449004650
H           1.02045227018581   -0.70403596637620   -2.15108279444764
H           0.66386435261079   -1.70828924563447   -3.29079451586896
O          -1.72164835258069   -0.00968390895406   -1.20368199650861
H          -1.09795747303844    0.70880835394215   -0.99097481751200
H          -1.24663976768588   -0.57296850440857   -1.82770425333062
O          -1.83799614875072   -1.44040734037518    1.05226299863011
H          -2.05335759498711   -0.90791691766684    0.25414380615233
H          -0.54354832352968   -1.96104360336455    0.62580321576586
O          -0.61674447822287    0.39357779655182    2.48168717846510
H          -1.01966501801317    1.25694367177568    2.26726199311733
H          -1.52559992085347   -0.77960880964548    1.72601068482024
H           0.23878670969778    0.39471688441733    2.02255045102790
N           0.48771777152494   -2.12313073021020    0.24303522579433
H           1.01911196715208   -1.25283195392992    0.50779676895650
H           0.45613100332534   -2.16074050856058   -0.78881890844704
H           0.91868028776850   -2.95094603746603    0.63791578118484
