    26
        -50.46933058  Gyration_radius:  2.44176886246 Dipole_moment: 6.745
 S           0.96160678655713   -1.55433444502112    0.56907199406919
O           1.02581680179677   -1.16569547991332   -0.84139293977706
O           2.00175012441763   -0.88364341650996    1.32799849461043
O          -0.36102735288957   -1.39372108105921    1.12363248934267
O           1.28802242286554   -3.09496972134256    0.61944585280060
H           2.21182405564212   -3.09472901894603    0.39631836637835
O          -2.78864004995141   -1.81297605049162    0.02973412019826
H          -3.34008838571911   -1.19330641958100    0.51187668639561
H          -1.93287607438395   -1.82595931662706    0.49561541219932
O           1.65231027113882    1.66706039268823    1.59357956280927
H           1.79547670130310    0.68423964135815    1.57254402665892
H           2.22986991080815    2.00578922200107    2.27915140494496
O          -1.30432443072334    1.79543126181459   -1.27887062961836
H           0.15230184146135    1.71607766546281   -1.25095080604244
H          -1.47688465673399    1.67992872687673   -0.31769539594506
O          -1.13473869815783    1.17851123318402    1.31723339799642
H          -0.31186391273539    1.58735445566185    1.61388710402473
H          -0.95199970416480    0.22086219814893    1.31688620425635
O          -1.41501703110230   -0.71444606854245   -2.04489988523688
H          -1.50070437945845    0.90924162131560   -1.68411933434274
H          -0.54245294204441   -1.00376036162086   -1.73240124910169
H          -2.05521323305067   -1.17496542669926   -1.46891203855079
N           1.22155252612223    1.45531017351407   -1.09307410908303
H           1.81878796409944    1.82216838251353   -1.82496302427078
H           1.24721517787181    0.40227528861264   -1.07122772672332
H           1.50929626701628    1.78825656320636   -0.15846797797734
