    26
        -50.46516752  Gyration_radius:  2.53901732826 Dipole_moment: 5.802
 S           0.19363340066262   -0.58806723735041   -0.03252109047378
O           0.49444429959543   -0.93022008149247   -1.43222739359386
O           0.96162531689231    0.58403255425687    0.37773125771989
O          -1.30452557478588   -0.15017032281219   -0.09262329454788
O           0.33451052894166   -1.69978170824474    0.87201858690011
O          -1.64690504706903   -2.67919496078049    2.34988813505129
H          -0.85532239515507   -2.42351653480018    1.83154946791541
H          -2.07390023617444   -3.38030022199778    1.85617510771591
O           2.67968531678468    0.36036370480261   -2.35718657757601
H           3.45332984137710    0.10584613073331   -1.85200702112553
H           1.95574244619495   -0.22148931057575   -2.05122543752860
O           0.49125184170918    0.25982695236476    2.97737690057071
H           0.73743442291390   -0.66342281092618    3.08251785218001
H           0.77870136592403    0.49680159550863    2.07490588817640
O           1.23063197975180    2.43803241989686   -1.46074771268268
H           0.03648138030955    1.82147572285784   -2.11076977933480
H           1.16536045366440    1.94126439454318   -0.61195160370440
H           1.95140212234881    1.96716860652312   -1.92711754943146
O          -2.06578479124817   -0.01854465124154    2.30074722557688
H          -1.21569964315128    0.24003792628687    2.72828595333600
H          -1.66064011549095   -0.06259149844892    0.87511909569955
H          -2.15739590001400   -0.97276850627810    2.49472037813916
N          -0.72270026515572    1.09309503234533   -2.43644935757770
H          -0.92356696008547    1.14693900479668   -3.42987497469593
H          -1.56513331447489    1.18083769013719   -1.87028943444712
H          -0.27266048426603    0.15434609988843   -2.15604463226251
