    26
        -50.45618392  Gyration_radius:  2.41746406327 Dipole_moment: 5.395
 S           1.83139177015984    0.07919378631975    0.23004687705013
O           1.56500420724360   -0.76319822247025   -0.93618931592733
O           1.32550927196105    1.42931464203152    0.01693855118379
O           1.37864112762028   -0.50418424976734    1.46593227411664
O           3.40495649321588    0.18664109797795    0.31356871793625
H           3.63600943602277    0.30411779886999   -0.60103506805159
O          -1.10053444528466   -0.23638654962250    2.94731015372308
H          -0.13941402627162   -0.19865466094613    3.01167475898271
H          -1.32319957723981    0.43949145649941    2.28799740914749
O          -2.04328472966069    0.15365360904381   -1.20259155127289
H          -1.41971531641706    0.59758704142052   -1.84410844705394
H          -1.93065724543455    0.65796010437861   -0.37431785297588
O          -0.45984502420201   -2.42225889331755    1.55380559647479
H           0.40916304081837   -1.97509327030935    1.59668557062037
H          -1.01857317160896   -1.84187234120388    2.11399440254852
O          -1.12900981146301    1.61021067885910    0.89051813445224
H          -1.31442741300495    2.54004574335892    1.03263544394356
H          -0.18059447970982    1.55631500191977    0.61407085808884
O          -0.68616591304728   -1.91172828748807   -0.88443795022524
H           0.24843611675154   -1.51028728416667   -0.98951090124061
H          -0.71304682320978   -2.21463861358908    0.12335925880466
H          -1.35667938129832   -1.08849226511461   -1.02029520531521
N          -0.00561794033396    1.20864821217135   -2.52563643254774
H           0.00517746600428    2.04475791692792   -3.09571757038761
H           0.46711999297028    0.47335968687544   -3.03671761573677
H           0.54935638549282    1.38549787128034   -1.68798011634089
