    26
        -50.46933059  Gyration_radius:  2.44177833281 Dipole_moment: 6.746
 S           0.13057617050723   -0.36978780155929   -1.87350463445879
O           0.51981653420170    0.95679711553633   -1.39059206100370
O           1.26068838348309   -1.27976674742039   -1.82329233618361
O          -1.05116328836941   -0.87006503332566   -1.21325194612106
O          -0.24185235138221   -0.19588637735450   -3.39461697968190
H           0.61254195940169   -0.02724468099232   -3.77511168886146
O          -0.66757278081650   -1.42225326516950    1.39449308899345
H           0.21000325369821   -1.82355465827372    1.36162903304150
H          -0.91312391345518   -1.28171120569016    0.46153670510398
O          -0.25146054209837    1.05068611726688    2.32225418189222
H          -0.56808004717608    0.13019989031382    2.18288796202287
H           1.01700507484948    0.95683861269637    1.60743162256815
O          -3.27864648580676    0.40592256201592   -0.39091826287433
H          -3.56455751644679   -0.13645106423835    0.34708948219499
H          -2.57164504547911   -0.09802476286207   -0.83334885398355
O           2.00726767716390   -1.92195874428785    0.57020809906199
H           1.71762286079015   -1.75516194005032   -0.36531884317600
H           2.58995199704487   -2.68205335979459    0.53720882257242
O          -1.33425607266148    2.20491570627540    0.22616897879625
H          -0.75902942443536    1.59957337568730    1.66706462427917
H          -0.71243466194947    1.89480216527112   -0.45198705342479
H          -2.17254788166721    1.74387301225423    0.03020589154738
N           1.84546890513666    0.78396626365867    0.88634182566157
H           2.13606331306818   -0.20552042298620    0.94644845716296
H           2.62353876233889    1.41573899365066    1.03602685719173
H           1.41582513005146    0.92612625936445   -0.06505296232852
