    26
        -50.46258545  Gyration_radius:  2.4094129121 Dipole_moment: 2.825
 S          -0.17733945392732    1.41749040712668   -1.04632691330421
O          -1.42190583446246    0.70713587587234   -1.30811734933218
O          -0.11273369624465    1.92853269807024    0.30893432708438
O           0.99348242100186    0.64462316465673   -1.41332826357171
O          -0.17992925540733    2.68212661344414   -1.99689798039539
H          -0.91863525702429    3.16153971086837   -1.63948312566738
O           0.95873285985930   -1.91446657302810   -0.65943100160448
H           1.08985475372574   -1.03071251834395   -1.05953932390681
H           0.05295111595178   -2.16680953714732   -0.92412953903639
O          -1.54715070464723   -1.92397616228987   -1.64976540075958
H          -1.64992494075167   -2.16361350467121   -2.57162748770905
H          -1.50924073216733   -0.94206727744309   -1.62137497070111
O          -2.77250847954120   -0.60300804240971    0.66006757222530
H          -2.45701229988861    0.01584593375192   -0.02241437666802
H          -2.72147902082315   -1.47149633403641    0.24912532356902
O           1.35370695104501   -1.16236305732547    1.72888456561087
H           1.18332345044937   -1.61133099672433    0.82117609874568
H           1.95994584311558   -0.29611993607332    1.45482783780744
O          -0.72316098873448    0.15836772287728    2.18060049146592
H           0.45120787116814   -0.70933663717891    2.00875648416448
H          -0.52360800947985    0.91781898807015    1.59053513987840
H          -1.55628950318389   -0.21667135800871    1.81861541437759
N           2.50584220001812    0.91769965159189    0.90250434731210
H           2.10604291052009    0.91908853962353   -0.04156083254435
H           3.50965309507832    1.02794159454894    0.84485674896503
H           2.10617470435243    1.71376103417566    1.38511220399557
