    26
        -50.46933061  Gyration_radius:  2.4417193904 Dipole_moment: 6.744
 S           0.61627483055956    1.81213008062633    0.03630185386078
O           0.95277585052990    1.88467979224749    1.44672545240885
O           1.43921545259582    0.80377133929045   -0.63495463830065
O          -0.79249112332586    1.63044720666668   -0.21877126262934
O           1.01378790157701    3.20004216215674   -0.59480471787158
H           1.89138839727136    3.31493770375400   -0.24867957176038
O          -1.80287189889976   -0.60479391879289    0.89251073655305
H          -1.55334865024355    0.23730763294080    0.46929909958895
H          -1.34952775369573   -0.59699867691294    1.74498813463251
O          -2.08805623931196    0.84309092771028   -2.44759324126786
H          -1.66081928476572    1.29434696320653   -1.69698893704412
H          -2.87758311014988    0.43094831800549   -2.09066784243019
O          -0.51055416901195   -2.44911908318488   -0.54880217184247
H          -1.19166456824293   -1.91781074583723   -0.07890659178557
H           0.66284271275745   -2.01330731754235    0.20052965841224
O           0.24705584875728   -0.19300255862832    2.81933337189196
H           0.28552250654624    0.00633822390220    3.75589942487051
H           0.47889393251260    0.65003794985093    2.34780203282009
O           0.10455268537793   -0.76602669025658   -2.46891235121447
H          -0.69779505919575   -0.25289982470230   -2.68501280926414
H           0.66281864249057   -0.15664844710692   -1.95927751316968
H          -0.34330390375073   -1.96011128808683   -1.39795365018111
N           1.46657678194287   -1.45643019614658    0.72996522719611
H           1.12691136789451   -1.19904089376841    1.67095512206614
H           1.58586585569413   -0.56236311508256    0.18556704701405
H           2.33353302411726   -1.97952554425444    0.77144812751765
