    26
        -50.46258544  Gyration_radius:  2.40942492203 Dipole_moment: 2.826
 S           1.15489339325077   -0.99854685280403   -0.89686103508070
O           0.81568463847609    0.01295849749217   -1.88875595012735
O           1.89220761128374   -0.44373714185477    0.22145779422277
O           0.00589385022026   -1.77991226123618   -0.48197544966383
O           2.13492482111820   -2.01232220433885   -1.61432397051368
H           2.87828471235220   -1.44306090867382   -1.77751865578389
O           0.41357437195389    2.61841588702283   -1.20734283222166
H           0.75225885478467    1.76575381352372   -1.53378861642680
H          -0.49512902490867    2.65998825424018   -1.52084953825877
O          -2.20753413269928   -0.37934702208057    0.02550926311140
H          -2.22360767048582    0.21684864575579   -0.74808167029605
H          -1.50815106324958   -1.03078831570607   -0.18615013983746
O          -1.66520417266478    0.86774211146461   -2.30074429076133
H          -0.75727194551196    0.49746468864591   -2.23049284711226
H          -2.04867766623321    0.49346881672053   -3.09489524068565
O          -1.13105810516952    0.44785951302348    2.16622458130137
H          -1.68580631967275    0.20788954166643    1.33605094420232
H          -0.56532950163217   -0.46886093186296    2.34650996530891
O           0.81898907454310    1.73635582183280    1.27240338186165
H           0.64647652063163    2.26805292831995    0.46412574172016
H          -0.37872092066164    1.10057566980356    1.84054862988014
H           1.34260395735362    0.97021773742130    0.95049352217323
N           0.28404145999196   -1.63104703829387    2.27947615602282
H           0.21002560218453   -1.89036773171327    1.29036228545661
H           0.07088459006221   -2.43404408344444    2.85641704603114
H           1.24574706467899   -1.35155743492986    2.43220094547620
