    26
        -50.46347773  Gyration_radius:  2.43809456539 Dipole_moment: 5.960
 S           0.39798625735873    1.24393596457898    0.36668216084882
O          -0.97571821186335    0.85479822076285    0.61517722059044
O           1.32166344262190    0.12136656372303    0.57947610502481
O           0.57971163190754    1.82221808549412   -0.95414003734647
O           0.78868252938531    2.34859280503190    1.40522062573118
H           0.85003494022696    1.88624454769320    2.25999413622379
O           1.19889436047952    0.36121407635342    3.17738226129837
H           1.31172042310915    0.03471199658672    2.25811975281597
H           2.04685292132340    0.25922090780351    3.61426258080723
O          -1.74761723534122    1.02955210741707   -2.10692029555289
H          -0.94778686794845    1.49318434272899   -1.80344198746236
H          -2.27619205361810    0.92783725789380   -1.30954418753402
O          -0.79097555623893   -1.39554937999441   -2.69668334628009
H           0.56850678984435   -0.91832359561986   -2.36784245070157
H          -1.27994337648838   -0.53952112879141   -2.68198301015412
O          -1.35866696320375   -0.94604136255733    2.72257906738181
H          -0.60799461693723   -0.69393231030934    3.26878599337100
H          -1.44822058332295   -0.22936673044315    2.07869349005265
O          -1.01136880723435   -1.76603763256191   -0.07480380915657
H          -1.02142887643692   -1.81711372551107   -1.84694161541322
H          -1.22185495004395   -2.18263881127413    0.76697987431719
H          -1.00917574344367   -0.81453724891815    0.13042851593211
N           1.47471282561367   -0.41820087319777   -1.98068684557707
H           2.31594700655824   -0.65652329495087   -2.49496347737732
H           1.55970343883087   -0.61032399413462   -0.95882838877501
H           1.28252729475532    0.60523322229024   -1.96700234315557
