    26
        -50.46347789  Gyration_radius:  2.43819202227 Dipole_moment: 5.951
 S           0.10653794297153    1.34925094709317    0.07445804683020
O           0.31914921607550    0.70000808835065   -1.22592155356505
O          -0.94621909876128    0.69748004033486    0.82758029617239
O           1.35056947165695    1.43405012439892    0.82147569130726
O          -0.34474764891243    2.81817692608359   -0.22593784118273
H          -1.05412363187053    2.73827706849967   -0.88843120626310
O           0.80808492817242   -0.35627043517189    2.79010037271416
H           1.09446586990978    0.39507444714450    2.24221587527488
H          -0.15254331150802   -0.31021649799473    2.76752252935785
O           1.50733794664391   -2.44470976929634    1.27511962004023
H           1.32767748391358   -1.82118520300972    2.01734765799402
H           2.09922788875858   -1.51018383339718    0.29458038288335
O          -3.09447895852157   -0.24534356764816   -0.69617763346292
H          -3.06346706854356    0.39632766692188   -1.41209580161974
H          -2.53480861716935    0.13051044007694   -0.00197128453893
O          -1.79325284407907    1.82691667761490   -2.26876901249111
H          -1.03824315100013    1.23434576964817   -2.06043102263329
H          -1.66008782591061    2.14152924342586   -3.16524934567661
O          -0.76741035990442   -1.88433276142578    0.02189111026214
H          -1.61828834525769   -2.00787926507185   -0.41078810211093
H           0.63486707979666   -2.57795943536436    0.85818218896971
H          -0.80259708244577   -0.96736689473927    0.34646298872193
N           2.38323751267887   -0.66561839175658   -0.35888305684516
H           2.39520415129828    0.19306848137132    0.23128736934701
H           1.58920550665582   -0.44665439580168   -0.99821580224558
H           3.25470294547191   -0.81729547020742   -0.85535248726809
