    26
        -50.46347787  Gyration_radius:  2.43813508895 Dipole_moment: 5.954
 S           0.46574384141691    1.27405613794152    0.02246835371676
O          -0.27073913522038    0.81727323308934   -1.16384478465397
O          -0.09367991188316    0.72078537382226    1.23951200373021
O           1.88625832259107    0.99688289507703   -0.10999858617117
O           0.30878475128330    2.83094696606777    0.07560576806941
H          -0.64426649335746    2.99685760445636   -0.03571919188806
O           2.13195366123214   -0.95789793670194    1.75860101229583
H           1.37915230389320   -0.72674048283489    2.31114554053327
H           2.23249504474524   -0.19469262380231    1.16346461250848
O           1.28995686807765   -2.86113432261225    0.08107753788853
H           1.43186567368775   -1.90819305165503   -1.03985057452975
H           1.72922927275733   -2.34655667380257    0.79817570620530
O          -2.87965214475531    0.46635046083395    1.27531250457878
H          -1.95159319908554    0.61000201402735    1.50855694772558
H          -3.10272186862327    1.19706758992388    0.69083091723391
O          -2.23899827004509    2.47737796715898   -0.72506679410223
H          -1.67658852068851    1.72727390646698   -1.01733360015086
H          -2.57057703713851    2.90170549361310   -1.51907205425469
O          -1.06318196446663   -1.68041502946245    0.43748409024315
H          -0.67470458880154   -0.83915218114716    0.73531149691645
H          -2.00600140800626   -1.56689494181014    0.59477813529241
H           0.33628404714854   -2.75437300051608    0.25997524567121
N           1.49668810645710   -1.03742596031489   -1.71703803653449
H           1.85408792641400   -1.26996522734841   -2.63742345251370
H           2.06245182837176   -0.30910811200038   -1.23307567314529
H           0.56775290388788   -0.56403009844175   -1.75387712469566
