    26
        -50.45374059  Gyration_radius:  2.50092869852 Dipole_moment: 2.180
 S           1.79210361743034    0.33243191646526    0.05420581781171
O           1.88853327122124    0.27254889502998   -1.40324442495913
O           1.20632431723704    1.58248278398585    0.50554502673455
O           1.13410181992222   -0.83066758707269    0.60855262632971
O           3.27887782671413    0.30555369019593    0.58116934709054
H           3.65961608106609    1.01632079355960    0.07706281025960
O          -1.42069958377259   -0.40585097075842    1.35969237530680
H          -1.37560304191196    0.22177162675132    2.10923712329983
H          -0.48275712340390   -0.61914432320145    1.19580909571731
O          -0.53787183215767   -2.76685069923514   -0.24886276471543
H          -1.25213684853351   -2.50196633798109    0.34050483832607
H           0.22653664953605   -2.22811643995377    0.02615849429625
O          -1.07433060117055   -1.96442966694150   -2.67623460969988
H          -0.55102449372643   -2.50526430614909   -3.26992879638817
H          -0.92115039038686   -2.32450798018219   -1.75902704880641
O          -1.24748655429375    1.45958853999987   -0.47936634491805
H          -1.54709239367146    0.74214037048460    0.14053158964578
H          -0.38226759693474    1.73552700561177   -0.10691877099311
O          -0.32426950710450    0.46039567550139   -2.54844602540243
H          -0.67246667375045   -0.50257436462293   -2.65178923027100
H          -0.85023590808020    0.91701254283122   -1.72638324075042
H           0.63828088591181    0.39124546487750   -2.17737382716332
N          -0.47671403160124    1.60049191491021    2.95193942218103
H          -0.94657154348388    2.49132267673231    3.05755070913364
H           0.22566419826149    1.71218573545889    2.22240764050065
H           0.01263946668625    1.40835301370468    3.81720816743132
