    26
        -50.46258545  Gyration_radius:  2.40941427138 Dipole_moment: 2.826
 S           0.23036796713621    0.72784932936485    1.59769802295906
O          -0.44698591922176    1.72953598704833    0.79777207748973
O          -0.63485554387409   -0.40013702267252    1.91567550122593
O           1.49816073686000    0.31466092446815    1.02777861343512
O           0.57814577426201    1.42253479909161    2.97587781334811
H          -0.28416962702479    1.72681545501241    3.23490801117386
O          -0.30475624376049   -2.82122915566323    0.87433500687537
H          -0.38568760458187   -1.96046143243390    1.34222855450491
H           0.09447824592507   -3.43032751016593    1.49677495639079
O           1.34816487925817   -1.57454482151754   -0.85020411990944
H           0.72897074110220   -2.19977908421186   -0.42610640679104
H           1.57249215526476   -0.93830798852667   -0.14084884605319
O           0.41086884817181    0.15847057428309   -2.44514476527246
H           0.98151269504327    0.98987191878197   -2.02544766287874
H           0.76619910367997   -0.64596074152010   -1.91488836743266
O          -2.65133145161378   -1.17883511457885    0.25978268757116
H          -2.09999931528822   -0.81987304900237    0.97775091194717
H          -2.31311858776510   -2.06679961208065    0.10851297881075
O          -1.73285638097034    0.76838131418962   -1.30746732565960
H          -2.22833499755376    0.02386515836233   -0.90004059279283
H          -1.34172876806743    1.24535980545190   -0.54309217131793
H          -0.55045644093300    0.35406594165202   -2.07684171468000
N           1.60508019070175    1.98536982993770   -1.19083932411524
H           2.48473472018371    2.39298317724047   -1.47923331065144
H           1.73624112397990    1.47307287055340   -0.31252325660292
H           0.93886368908408    2.72341845693405   -0.99641727157359
