    26
        -50.46347787  Gyration_radius:  2.4382787444 Dipole_moment: 5.951
 S           0.08934636814079    1.26699815456012   -0.47447393514981
O           1.13842141335034    0.30526842330469   -0.83860212974430
O          -1.21541905592125    0.63792014065659   -0.43080734513428
O           0.41777864170882    1.94767684118878    0.76702933114321
O           0.06980972159446    2.35620793516118   -1.59906727275181
H           0.04999576771353    1.86020952426627   -2.43688190695144
O          -1.46490938667663    0.84972347322153    2.38663739953036
H          -0.83412106366041    1.42025180288746    1.91399937395056
H          -2.11307334728927    0.61158547270909    1.71688823802199
O           0.48429247734514    0.36597059758254   -3.36633058473575
H           1.23777939324861    0.38252061314251   -3.95996058134518
H           0.82642527768784    0.11877393680217   -2.47957284924328
O          -1.65460637607103   -1.33245335049278   -2.36773196618506
H          -1.08475618629417   -0.98952670720838   -3.06263603562945
H          -1.74756025576568   -0.60195826431345   -1.73994620005554
O           0.00208676159046   -1.33793659861598    2.84344074493967
H          -0.62423285964877   -0.57897537551813    2.90286592147678
H           1.16508711915807   -0.66139232330021    2.23104632398173
O          -0.64719267507004   -1.90121525591516    0.32942845705111
H          -0.30984011327244   -1.84540196534176    2.07018379707088
H          -0.85728540251228   -0.97841232875546    0.10214439906503
H          -0.93056345652637   -2.39883725261103   -0.44422426234837
N           1.87514395342229   -0.04255955792789    1.65333079533855
H           1.50466621219586    0.93104596379778    1.64709135925729
H           1.79401280237700   -0.28409218953403    0.64196633601245
H           2.82871425926865   -0.10139172968036    1.99418258239965
