    26
        -50.45374059  Gyration_radius:  2.50093324827 Dipole_moment: 2.180
 S          -0.52971613459265   -1.68691204898683    0.44583434012966
O           0.85663546924335   -2.14043188018204    0.54279745141358
O          -0.92140244757213   -0.89736687934103    1.60024730602839
O          -0.80288179524404   -1.02262217471701   -0.81001889655064
O          -1.40897248538879   -2.99665614335359    0.46578214032065
H          -1.07717216832618   -3.42227636392683    1.24874526873098
O           0.60405964773867    0.20646765381236   -2.75665537596273
H           0.19308818981672    1.06385675290854   -2.60277857581146
H           0.10231505547577   -0.41553211799273   -2.19848087813452
O           0.65470240136295    1.22094276921226    1.41316462127661
H           0.19144507122942    1.59578147194827    0.61714014779362
H           0.05544658678829    0.50136555982316    1.70737971352164
O           3.01336467566498    0.20637197750229   -1.74718276185510
H           3.49927710864920   -0.49289636080473   -2.18733717362592
H           2.12013697622589    0.24903536155617   -2.18844718893918
O          -0.92108559472967    1.66595760590841   -0.63887617719870
H          -0.98085177373248    0.70092283517096   -0.77011343633852
H          -1.70723355077573    1.86218349115164   -0.09003546047832
O           2.50109932734703   -0.26553562834170    0.69690146660073
H           2.76789267240787   -0.04232777359987   -0.27172578969118
H           1.80254142117533    0.48417905767297    1.02985375469201
H           1.90728769057716   -1.11090451751030    0.65540147324679
N          -2.85973003719318    1.32518912488881    1.25251173162823
H          -2.34173525758158    0.47948899787970    1.48596795131322
H          -3.80118049305908    1.04588050361568    1.00607229783219
H          -2.91733053551193    1.88583873570751    2.09385204005834
