    26
        -50.45374059  Gyration_radius:  2.50093438778 Dipole_moment: 2.181
 S           0.78572038309287   -1.64445940679694   -0.05839822765753
O          -0.56093139821787   -1.93349145998892    0.40254187087380
O           0.86288254994386   -1.60070269994995   -1.51757334557483
O           1.35013229089718   -0.46267806930025    0.55633484696331
O           1.69161630895286   -2.85937924222623    0.38004708264305
H           1.33100915372736   -3.55451487965111   -0.15942299850558
O           1.91660664012154    2.07527732605580   -0.16295027404107
H           1.29375553923760    2.46089231601756    0.46238954592730
H           1.93559274247040    1.12557130112354    0.05587427018847
O          -1.92293999220000    0.17684826241285   -0.43285463572370
H          -1.50696196776197    0.80357861296748    0.21748904421397
H          -1.63034789454851   -0.70548704538355   -0.11768806567107
O          -0.48091067532976    1.30422538213764    1.44904560617894
H          -0.94762327301582    0.85447085709273    2.18230287148383
H           0.23983078835080    0.68259304569316    1.23409993131431
O           0.90590111956622    2.18007673819763   -2.56948225690182
H           1.63958547544050    2.11087645310953   -3.18247720836528
H           1.30467019834887    2.21388323760072   -1.65611893902369
O          -0.61181849811140    0.14196210521081   -2.53324085538816
H          -1.27451737978487    0.24919462518795   -1.69050124878469
H          -0.03968640108299    0.99509204730815   -2.59714018177623
H           0.01706789247195   -0.61595273876002   -2.21849605178838
N          -1.51806129702257   -0.73119475048584    2.94344639374358
H          -2.51269262441978   -0.88206482544804    3.05940622655323
H          -1.05840856902604   -1.06433530985602    3.78178431491686
H          -1.20947110209939   -1.32028188226884    2.17158230419998
