    26
        -50.46347764  Gyration_radius:  2.43834931013 Dipole_moment: 5.956
 S           0.88703149665124    0.58211458571807    0.84284952823265
O           1.17385875739512    0.59404956740300   -0.59782097261741
O          -0.52732319586674    0.75911321650735    1.10415173128172
O           1.41972820163695   -0.61716071457497    1.46792687774139
O           1.65488320280972    1.79748527987880    1.46298206366016
H           1.43557590779204    2.55730627453214    0.89459507703151
O          -0.90879740201937   -1.89132256610415    2.04096574078061
H          -0.01417307882188   -1.50907307669398    2.02449980683478
H          -1.49044262467691   -1.12591644881088    2.07557731788831
O          -1.84378755529157    2.51234142346276   -0.63264416488600
H          -1.10974859840750    3.09766020594385   -0.84195839541925
H          -1.54599393628868    2.00666747078152    0.13690898124388
O          -1.12322495382992   -2.90523008090516   -0.42317169028447
H          -1.16547134855390   -2.73851992671458    0.54757357490929
H           0.27103727487561   -2.49415941273205   -0.69187234146939
O           0.98169262116869    3.19437462610351   -0.73895571842420
H           1.65365404195413    3.60221907803568   -1.28902436913500
H           1.00144692740562    2.23170998601884   -0.93257755848290
O          -1.69792165893851   -0.38922183890487   -1.05437475604854
H          -1.59034439142991   -2.14392046932398   -0.81684123068390
H          -1.28131275760701   -0.01842779199436   -0.25669856734352
H          -2.13441065798435    0.36739939119674   -1.45864515801992
N           1.26912159991642   -2.02238360892251   -0.73908944781658
H           1.17109933482783   -1.05261344991807   -1.10980338123576
H           1.94889777867352   -2.57124199765416   -1.25443668796844
H           1.56492500468684   -1.82324971235665    0.23988374021729
