    26
        -50.45374063  Gyration_radius:  2.50093380387 Dipole_moment: 2.180
 S           0.45198763214288   -0.71302786736244   -1.61620943731953
O          -0.91770527115117   -1.17085105466719   -1.84282231909066
O           0.58593090878574    0.71693752483651   -1.83231897180926
O           0.96778265620185   -1.13972173733343   -0.33364041019797
O           1.32777618565296   -1.42763516286249   -2.71680811177353
H           0.84832233365656   -1.19564357182110   -3.50456237204901
O          -0.02714296924089   -1.96711210334228    2.03372614869249
H           0.33036661738207   -1.21685520402462    2.52052160120570
H           0.35840302370153   -1.89338723071096    1.14146455454805
O           1.00777422935077    0.79539775123532    1.54409302343331
H           1.66116034370093    1.45378438115389    1.23204824972338
H           1.10777001099131    0.06668346214641    0.90295241464728
O          -0.94961760234397    1.73495560485704    0.06829958024234
H          -0.41295833591076    1.56746349312572   -0.73631103585396
H          -0.33820708043790    1.48109277397981    0.81024003257024
O          -2.59237162559524   -1.62548985880936    1.67717378290043
H          -1.62821743536022   -1.77250987298756    1.88495682428449
H          -2.96703672548953   -2.49089635702575    1.50519506396341
O          -2.58678226269078   -0.07780711972383   -0.33858610471103
H          -1.98294710846904    0.77785782192864   -0.08549753539621
H          -1.98441111415321   -0.57432429023183   -1.01654989450051
H          -2.65197941268980   -0.67751732119944    0.49531672471854
N           2.52084389150266    2.26086703350505   -0.19227281116568
H           3.49696400330214    2.04918479969765   -0.35798731339447
H           2.39558269688445    3.25595999230264   -0.33224360698853
H           1.97871243026930    1.78259412332987   -0.91017806667860
