    26
        -50.46555178  Gyration_radius:  2.45683048844 Dipole_moment: 6.213
 S           1.73178927267202    1.37055931439368   -0.48598001744655
O           1.79351682671729    1.80171197278654    0.90313385036603
O           2.28461193550435    0.04642223313224   -0.66942556460223
O           0.39562933270847    1.51877139658440   -1.04202130955013
O           2.65571410668157    2.35909134289128   -1.30947914561234
H           3.50997766141295    2.06297625881359   -1.01695241255323
O          -0.81843436975342   -0.41167940902294   -2.40708790459678
H          -0.34231095809941    0.39322428039172   -2.11207998876501
H          -1.77286456919855   -0.53745544344103   -1.27613749259483
O           0.34606015130449    0.30059754444097    2.35763489437857
H           0.94885005660699    0.85595458548033    1.77812727214111
H           0.73417504151136    0.33866275401838    3.23339602696693
O          -1.51570235884443    1.66945930710856    0.77460050913927
H          -0.82496456123203    1.82109208938247    0.09075683671253
H          -1.02157787100207    1.38562146218537    1.55737502211243
O          -0.53406166413213   -1.98282863035657    1.27910964494862
H          -0.34742160837754   -2.68571510329450    1.90263494977842
H          -0.15859541610057   -1.15676666283337    1.66208130657641
O           0.82834609245368   -2.10024306665854   -1.23117918017885
H           0.40362582967787   -2.22726315079046   -0.37180684396328
H          -0.19375140912856   -1.14886307362371   -2.19215701043522
H           1.48679263949851   -1.39036903187426   -1.08156334401710
N          -2.30772489044594   -0.58129894171848   -0.31634786700617
H          -3.29620886255063   -0.76471135359617   -0.43951929175305
H          -2.12968608280971    0.36447165676102    0.15035344385099
H          -1.85578433507979   -1.30142233116047    0.26253360612242
