    26
        -50.46184998  Gyration_radius:  2.40106708316 Dipole_moment: 4.325
 S          -0.93613733195565   -1.52306807078162   -0.34487455362505
O          -0.01610564933407   -1.61156636426422    0.78605664645419
O          -1.95457029711456   -0.50968923353843   -0.10195893142319
O          -0.26055033845564   -1.34630999543265   -1.60640203529760
O          -1.68411923386721   -2.91036845897260   -0.41048194650558
H          -2.08445172047277   -2.95246335143514    0.45088581753739
O          -1.06657223233928    1.28763179796168   -1.78737842143968
H          -1.49600418900934    0.66780097515033   -1.15242994303085
H          -0.88823787151154    0.74491985900038   -2.56143223315959
O           0.66144884828707    0.82964733997235    1.54825232482512
H          -0.20158454103111    1.28881959238850    1.73831746608916
H           0.40833236482787   -0.10150780245934    1.35933479451826
O           2.66760035627309   -1.60318977048484    0.70304343991429
H           2.86715058124083   -1.00072665143347    1.42333045504995
H           1.71186033629109   -1.79272731971547    0.77212122405546
O           1.24110292347211    1.65416628116131   -0.73412992218917
H           0.32235017371512    1.64245473234399   -1.17974575677571
H           1.06123043857691    1.37260711166978    0.27733115808153
O           2.21786120676114   -0.44432481312316   -1.64464291416776
H           1.76102846987683    0.81901067224477   -1.16634377303012
H           2.60650626592455   -0.90854267349318   -0.86699893065838
H           1.35851586164376   -0.89691548402338   -1.79476746980608
N          -1.80955732332438    1.80207186371280    1.64131243461411
H          -2.38530226280412    1.86426282892180    2.47093630873706
H          -2.12312292431681    0.99898539527016    1.09833763289007
H          -1.97867191132905    2.62902152924832    1.08232711842089
