    26
        -50.46555093  Gyration_radius:  2.45539132618 Dipole_moment: 6.212
 S           0.43624061670937   -0.61040984056227    2.13015717189709
O          -0.97026210949893   -0.48051098031635    2.48233395577218
O           0.69407643716437   -1.80498017384350    1.35605855576298
O           0.95685886992880    0.59928363296718    1.51216909015417
O           1.23101951640048   -0.77716698939733    3.49023633814503
H           0.96268092199039   -1.65677610391906    3.72947412018337
O          -2.35391039584988   -0.25224330611860    0.36101653183186
H          -3.21749932215003   -0.60781114244133    0.57726510432983
H          -1.79900225828975   -0.38974048316987    1.18567900537086
O           2.40704586608059    0.57124329725675   -0.71513771619355
H           2.07480125375136    0.62187795375976    0.20605965406595
H           1.26322535053277    1.22107251429617   -1.40453737422040
O          -0.91348370723876    2.15074854264080    0.47722776644137
H          -1.66467689425970    1.54058214018960    0.49962789519276
H          -0.22305542573047    1.70924000411805    1.02138313096337
O          -1.16365523421423   -0.75921321263002   -1.98036101364370
H          -1.74121172604278   -1.34380854585866   -2.47268915868868
H          -1.58227905366625   -0.62306067495169   -1.09933469129591
O           1.38080439006432   -1.80588352878788   -1.20745774980394
H           2.25352613681200   -0.37252201850983   -0.97143774108504
H           1.19524897951392   -1.94896345753443   -0.25622500842746
H           0.52372338109294   -1.57740883863424   -1.59246403038665
N           0.29533903614958    1.58232665654584   -1.78116499939608
H           0.40576292359324    2.29654623627164   -2.49083075157940
H          -0.22473239252043    1.94749420962458   -0.92101142144903
H          -0.22658518032264    0.77008409900985   -2.13603664394057
