    26
        -50.46770708  Gyration_radius:  2.51924241136 Dipole_moment: 3.816
 S           0.82750770883283   -1.83040356925122   -0.85625331689130
O          -0.48552913337840   -2.31993488732398   -1.23463405621074
O           1.09128823543456   -0.50822806125900   -1.40433764511557
O           1.06356059994390   -1.89036432396677    0.57554081318096
O           1.88436669839995   -2.80983348964263   -1.50761372109364
H           1.64839888938690   -2.79013620373394   -2.42948602892448
O           2.48871999250895    0.53150455695005    0.60380861466317
H           2.60298032435982   -0.30516985944464    1.06353349900553
H           2.04902920257204    0.28262727853210   -0.23284986791892
O           0.50933281743126    1.80199659282389    1.86557169828926
H           1.34904676620383    1.47838696124695    1.46254933562798
H           0.11139058290711    2.40622920590633    1.19298962981227
O          -0.50621172713546    3.17926830052284   -0.15585857351707
H           0.12111178366173    3.73238976434230   -0.62328011614728
H          -0.75501939803811    2.46019998918047   -0.78636278363363
O          -2.41568431621338   -0.86395348834772   -0.33224792050978
H          -1.71528685856572   -1.46007946077641   -0.71312299698814
H          -3.25730602845613   -1.26945214176438   -0.54604598831046
O          -1.02342350094324    1.12128335885528   -1.75143051504941
H          -0.21362056997595    0.57761113868147   -1.74152704249491
H          -1.70693901663222    0.56835110932557   -1.34870938928206
N          -0.75622724826620   -0.42473489684019    1.79558883101027
H          -0.28645763300505    0.57640961572810    1.86417808924458
H          -1.54993229404286   -0.42686981128004    1.13364036066003
H          -0.02374656416072   -1.07012902571267    1.39544844973059
H          -1.05134932283540   -0.74696866274847    2.71091062086422
