    26
        -50.46516746  Gyration_radius:  2.53911031204 Dipole_moment: 5.799
 S          -0.39520723708330    0.36158437777116    0.31153335281306
O           0.03814927467221    0.49874255448060   -1.07604556859666
O           0.35879932918249    1.28517712985482    1.17475225005781
O          -1.82279053677290    0.46631877752070    0.46956365268869
O           0.08280721637114   -1.04338651851035    0.79898077810261
O          -3.38402503558852   -1.53027203409520    1.27291433700123
H          -2.90508632048247   -0.71941243257782    1.00140985819584
H          -3.46651591976236   -1.48498894675777    2.22620444163388
O           1.71243875084362    3.14245610154464   -0.24449065034445
H           1.10213100248195    3.68795124211549   -0.74294171164211
H           1.15910060697523    2.57494245431653    0.32823090446500
O          -2.02520919599605   -0.84424230059307   -2.08766920696753
H          -2.75423496302926   -0.38781811119909   -1.65844487910914
H          -1.23510065569429   -0.30949904428297   -1.88033677986214
O          -1.49469798639959   -2.69552082133953   -0.25305382648519
H          -1.70491205627118   -2.21234582310932   -1.08648901787436
H          -0.52736183428174   -1.76376066343840    0.37485872909435
H          -2.27835586938019   -2.55630184868606    0.31539657227404
O           2.61238607027340    0.89257424027457   -1.40570119324919
H           1.66381520967061    0.65096029299992   -1.52097478877146
H           2.56354992901076    1.84623749570834   -1.18924652381583
H           2.77084646947535    0.31055326943440   -0.04001171080630
N           2.57837865001067    0.00947277991230    1.00170135390272
H           1.69352088560889    0.57627002841240    1.24287754106184
H           3.35361192671515    0.21509508009658    1.62370074439476
H           2.30396228946392   -0.97078728985853    1.04328135183613
