    26
        -50.47468851  Gyration_radius:  2.41766511558 Dipole_moment: 2.069
 S          -0.07330025834632   -1.37364829850519   -1.03905556805791
O          -0.67271696969084   -0.08072122670454   -1.40270370607505
O           1.12795582315090   -1.15654845201130   -0.22811615252541
O          -1.01228863552902   -2.25022223789583   -0.39913221179924
O           0.39774044620752   -2.03342917399134   -2.37619967648007
H           0.93646740477964   -1.33603861287012   -2.78480500051750
O           1.94278862848909    1.38761327740825   -0.40845774319661
H           1.74374475405270    0.43270364799298   -0.35579706883672
H           2.01219433854615    1.57358765979963   -1.34830973263836
O           0.35083318277452    1.98788891070867    1.69459402677637
H          -0.53576322726997    1.91421646351317    1.30158150084528
H           0.97631717506464    1.98476548816981    0.94234064220933
O           1.18952897042428    0.44973699835827   -3.11490585542758
H           0.84439190397357    0.73103150060514   -3.96453401386606
H           0.43217684023051    0.45337007361742   -2.48590492552964
O          -1.97435021148031   -1.24016080636094    1.87590333059546
H          -1.76813110302802   -1.77424235294807    1.08062632581289
H          -2.25838660601869   -0.37840595763321    1.52855430017550
O          -1.98847813132665    1.15153852808650    0.47932207914611
H          -1.50647890309248    0.68983511830439   -0.25086061966970
H          -2.70981420589813    1.62638512441852    0.06394009610932
N           0.52766318857404   -0.56236431560017    2.27227272535731
H          -0.48436451152886   -0.89201494244733    2.32084953492953
H           0.88904527032968   -0.90821200503414    1.34722780002524
H           0.52512160351300    0.50658671600317    2.20704784638600
H           1.08810324310055   -0.90325111498248    3.04452207625109
