    26
        -50.47455455  Gyration_radius:  2.42606809118 Dipole_moment: 3.601
 S          -1.40756100624497    0.35268406408183    0.50003704257269
O          -1.79892674364019   -0.55859264412006   -0.56704883901934
O          -0.48817641383576   -0.32396182044257    1.42149394680993
O          -0.84296882625651    1.59244590402515    0.00237389617112
O          -2.68018315402545    0.73917691437914    1.31388731997469
H          -3.03890098698213   -0.12769605531810    1.58844328184020
O           1.90044294157820   -0.00149766171826   -2.00363518627698
H           1.05325973014458    0.21696013025091   -2.45435071696343
H           1.69057459983907   -0.80164683152619   -1.47916142235424
O           2.05621257034252    0.09814354567381    2.07171339718508
H           1.08569946696907   -0.03312418418289    2.02912709986378
H           2.43858642828125   -0.75594649612165    1.85483536478088
O          -0.61910665946428    0.61472900712712   -2.66490284260040
H          -0.79836842156607    1.52800213767779   -2.42891431361627
H          -1.11496128456423    0.09495033726563   -2.00275267246622
O           0.78875332883543   -1.84526596945407   -0.36800627812155
H           0.08318048904248   -2.17786832419048   -0.92862296790968
H           0.33330941918044   -1.32487994324421    0.32271140978169
O          -2.84167206416617   -1.89063438119934    1.50567580604190
H          -2.00318719005668   -1.97896629786892    1.96966559427165
H          -2.61063457663657   -1.74053587303738    0.57389911450725
N           1.78690541320858    1.69473686564705   -0.04834993098608
H           2.23836324789657    2.59881080481208   -0.12553389362244
H           1.97007307904557    1.06069579420961   -0.90711017671850
H           2.08171446427126    1.17883196188181    0.81761832784554
H           0.73757214877984    1.79044902543542    0.00690763900640
