    26
        -50.47192512  Gyration_radius:  2.43567742288 Dipole_moment: 1.731
 S           0.69755735191546    1.91796724778139   -0.01237395367412
O           1.35415018476920    1.48126226915674   -1.23071561040042
O          -0.76021329868267    1.95133695058848   -0.17024242647984
O           1.09851821935824    1.19116238769693    1.16741735193028
O           1.14398241115670    3.42047055775379    0.21206878034917
H           1.04964872560239    3.79319126871529   -0.65838101694113
O           2.60551120390955   -0.61239639827216   -0.25098191649134
H           2.22219335362194    0.12502207805771   -0.77083766845786
H           2.69909849292806   -0.23401157018988    0.62951366224709
O          -0.03008978290331   -0.91911172995744    2.37076450625569
H           0.48225557189477   -0.12313541502396    2.12817249969533
H           0.25311299351232   -1.60102194917119    1.73573045980820
O          -0.89814050420160    0.45063517217749   -2.39639239415802
H          -1.00633291985067    1.09710966481156   -1.67586708880019
H           0.04474773137956    0.48941686627722   -2.58868126285254
O          -1.69987196355903   -1.69640895618645   -1.01537111570721
H          -1.46416993906398   -1.02083103406349   -1.69003037289718
H          -0.85442287077722   -2.06586009811948   -0.70340185271195
O           0.70896801076986   -2.38254583061315    0.14207471473211
H           1.09898901889567   -3.25439575841846    0.06628247824975
H           1.43277206788602   -1.73537950393650   -0.08011629227820
N          -2.07018154291918   -0.04743588448846    0.97465187410906
H          -2.08757694425202   -0.76081958003292    0.17127791055162
H          -1.64096529754043    0.83061537657949    0.58796924903173
H          -2.99187459169946    0.12772864189093    1.35691594314614
H          -1.38766570209497   -0.42256476299764    1.70055352176202
