    26
        -50.46631198  Gyration_radius:  2.51114633343 Dipole_moment: 4.289
 S           0.35977022266684    1.90807597411869    0.43233914227551
O           0.28566858818058    1.25933630207651    1.72559180103859
O           1.62590688092835    1.68082369296768   -0.23413701280928
O          -0.78643839493763    1.56570448423571   -0.40445357183932
O           0.25116028948389    3.47064892926615    0.67214013747736
H           1.08746511713672    3.68601152557535    1.07329149272248
O          -0.35760895127659    0.29514823258232   -2.68793595748807
H          -0.49822609266712    0.84083288544302   -1.88028350143623
H          -0.29385286849114    0.91325707268683   -3.41700513668423
O          -2.16576642930350   -1.69058044939508   -2.05243975568686
H          -3.02711501067654   -1.44721263203178   -2.39342598137320
H          -1.52702500924521   -1.05440164240965   -2.42529263750320
O           1.95314777104335   -0.87880608286434    2.02109886516680
H           2.25225054680535   -1.12647064495649    1.14199956336769
H           1.54494685429085    0.00007595015757    1.92692406014112
O           1.53871728860815   -0.85152508332930   -0.88978292297701
H           1.24127875838170   -0.82504203594812   -1.80707546274916
H           1.70751840950868    0.09261196145198   -0.65962514640104
O          -0.60440032966379   -1.18072518673210    2.87948607798748
H          -0.61387908233804   -0.21653399686135    2.94170876382766
H           0.34691434847520   -1.39304561909418    2.83902732670638
N          -0.88608724459796   -1.03425378767814    0.25059803954797
H          -0.92611891263193   -1.26782080434281    1.27991098819775
H          -1.06016004606813   -0.01500421433054    0.13341411348678
H           0.09102730281503   -1.17786712339144   -0.10912867589788
H          -1.53909400648289   -1.55323771711458   -0.35694462919295
