    26
        -50.47598081  Gyration_radius:  2.46836880773 Dipole_moment: 2.530
 S           0.67654032276228    0.03914632561478   -1.32442389968991
O          -0.68743228040008    0.28849163576176   -1.78426792880747
O           1.06556174281382    1.03549557073989   -0.32268652779509
O           0.85364951892976   -1.31045445350993   -0.82921277751408
O           1.63401021918073    0.20133472806480   -2.54193426131323
H           1.34678255234760    1.04728382025750   -2.93982802559630
O           2.42418301415101   -0.59536659128302    1.32734067994495
H           2.11099575907632    0.15381005948907    0.78908184285519
H           2.34040229523893   -1.34675254718951    0.73062069277505
O           0.25886943207846   -0.81423557719347    2.88584508436660
H           1.16401081833035   -0.77424148144515    2.49766125897958
H          -0.20591381198055   -1.49428172271663    2.36978900854856
O           0.13663256523278    2.22753541048403   -3.33513718985467
H          -0.40829510394915    1.65480862268133   -2.75753239669243
H          -0.24712439164215    2.17553191147214   -4.21351581724540
O          -0.91617861288359   -2.26555263855922    0.83820290366053
H          -0.24803430844031   -1.93383062349828    0.18813236279425
H          -1.00527644021819   -3.20466612146251    0.66899698900888
O          -2.48302801321364   -0.10096950716230    0.14610134762750
H          -2.21754497104504   -0.98912445998040    0.43792964565929
H          -1.97940759470864    0.04718620415102   -0.68110380032831
N          -0.73398971568600    1.22541267564548    1.58962977477659
H          -1.59060311787052    0.81902570686992    1.10825783397026
H          -0.00137261400763    1.31728782054932    0.83782500991232
H          -0.92167483679870    2.11286140703315    2.04116760604117
H          -0.36576238729583    0.48426381505468    2.27306060397640
