    26
        -50.46516751  Gyration_radius:  2.53920727953 Dipole_moment: 5.801
 S           0.21106508028418   -0.20994573979146    0.54300695846113
O          -0.48688459836683   -1.45747799332806    0.89404237253771
O           1.11972969501450    0.24489632373060    1.56343943339356
O           0.84011625324055   -0.33456536826061   -0.76868549439864
O          -0.95782236469104    0.81492781101587    0.38998840714465
O           0.19955004251817   -3.50657909209235   -0.72666075074360
H           1.13583767497529   -3.69403142626919   -0.64430875017525
H          -0.00290529158319   -2.84240561801184   -0.03806403859752
O           2.35753836664196    1.83516234607343   -0.49490985832108
H           2.75792352275710    1.65788111017096    0.36086564873010
H           1.89728975334113    1.00822600079343   -0.73482752355193
O           0.91190427305923    2.58115389877337    2.81573188540272
H           1.06746715715617    1.68725248450714    2.44506566534763
H           0.38860338768098    2.45408324171789    3.60798007288914
O          -0.54860663006488   -1.67645116179083   -2.54617809956665
H           0.07416928516956   -1.06447872592111   -2.08876745213068
H          -0.28474118840957   -2.55057148155201   -2.19260166551345
H          -1.73544622319817   -1.38245541075078   -1.68984399733868
O           0.13759007333781    3.07648961598521    0.28344030076088
H           0.98770409369795    2.82545788758452   -0.14840645800197
H          -0.55472497658561    1.76553991600001    0.32238193303777
H           0.36666571370244    3.19143614017974    1.22729307368620
N          -2.37377886760011   -1.16292486083720   -0.81957938401594
H          -2.59152205064511   -0.16847130723659   -0.78043239648220
H          -1.70708510292146   -1.35444681858920    0.00582092066570
H          -3.20963707851971   -1.73770178210467   -0.78579082323887
