    26
        -50.47334132  Gyration_radius:  2.42263221592 Dipole_moment: 3.257
 S          -0.95530621545617    0.39999640856008    0.80450882143856
O          -1.93457497024226    0.54649512070973   -0.27378806295066
O          -0.59529693238435   -1.00527132127479    0.97809604369319
O           0.20591589268797    1.23856789356586    0.58703891983644
O          -1.61879790990977    0.87680316651978    2.13359486788165
H          -2.40500528123714    0.29630082047006    2.19528609121438
O           1.32858626179447    2.25428984017571   -1.64974189967173
H           2.19629498717493    1.85581783714128   -1.52193703025167
H           0.90210632252112    2.20733683000055   -0.77449865789156
O          -3.31700785588795   -1.00892969129078    1.44439695936547
H          -3.24656640712481   -0.53563905938127    0.60200209175342
H          -2.59318465135613   -1.64628132528859    1.43380245077117
O           1.73837341167892   -1.12311675656551    2.36042572129713
H           1.59662160517926   -0.59775735768819    3.14889050060139
H           0.87622803535877   -1.17203751763795    1.90865264629554
O           2.53379872356275    0.00970766872184   -0.02037776318674
H           2.74794235597514   -0.50984214091967    0.76877165250440
H           1.75364002087045    0.52428330272440    0.26334633327507
O           0.81602360379544   -1.61919880548017   -1.24192169280538
H           0.25467356444728   -1.64668087686670   -0.44436266493623
H           1.63488535198980   -1.16804336257788   -0.92796616070275
N          -0.39453212925290    0.36919934101729   -2.39475702552745
H          -1.13623570768465    0.51405984624335   -1.65786115042199
H           0.28602508081461    1.17077332805546   -2.30995721924788
H           0.11917608122074   -0.52813550712437   -2.08756792204397
H          -0.79378321852642    0.29730231816651   -3.32407586029594
