    26
        -50.46809204  Gyration_radius:  2.53169751549 Dipole_moment: 1.572
 S           2.08389099300054   -0.49895621566518    0.09170425689111
O           1.93397975597383   -1.30883823953777    1.28705928946284
O           1.46095850009489   -1.12295028143154   -1.06996236213035
O           1.66329173464843    0.87381540019246    0.26565735534715
O           3.63960989017168   -0.45940278805042   -0.20518418764287
H           3.86846215152770   -1.36447623962420   -0.02482971287403
O          -1.81880087177391    0.61641388153474   -1.79138046976061
H          -1.76086200016993   -0.25212041015786   -1.33623004085066
H          -1.05684819872404    0.61414317612120   -2.40934878851596
O          -0.42213262658109   -1.26243387994808    2.33343325597130
H           0.50144520800886   -1.23135783655044    1.96410440188497
H          -0.37686404301358   -1.85289054245103    3.08741786469961
O           0.57509436298899    0.46857448928223   -2.98881928916242
H           0.96978996100454   -0.06742617043271   -2.26554782987448
H           0.73465073326143   -0.02478869823071   -3.79485179021427
O          -1.94968680801177    0.94913789217399    2.28538133098439
H          -1.34670359064516    0.18616603292129    2.41063684724986
H          -2.79669968342411    0.57542260085372    2.03300444384223
O          -1.10681099585255   -1.54291613552583   -0.37663693306686
H          -1.05630938355913   -1.55788829887728    0.58852452618820
H          -0.17987135706740   -1.52688168336044   -0.68005358379667
N          -0.71595762610671    1.98396157529828    0.12318658669084
H          -1.23127700715578    1.51096852108177   -0.70230945142784
H           0.25620810414851    1.57756938073171    0.15845397223938
H          -0.66406920679466    2.98912185450150    0.00465035052540
H          -1.20448801594106    1.72803262515013    1.01193996737609
