    26
        -50.47108508  Gyration_radius:  2.42275026117 Dipole_moment: 5.153
 S           1.64659430205149    0.90199315411462   -0.13279417284867
O           0.89317659264582    1.62031721525818    0.88849753667316
O           1.83325898170394   -0.49112016375899    0.24771569215710
O           1.09527231256829    1.07234284520473   -1.45591925781773
O           3.09172466813803    1.53858318311711   -0.16671190371868
H           3.49678971613418    1.16340400394451    0.60725839241671
O           0.67719903972064   -2.20194891743004    1.96899484917748
H           0.20818766381918   -2.75675463482095    1.33701558069154
H           1.31217562438792   -1.69658358731700    1.42718786060266
O          -0.32720130760599   -1.74706464806637   -0.83722356437448
H          -0.37298263061261   -1.53807649910976   -1.78995019493336
H           0.49370703881954   -1.32149791690781   -0.53466576468918
O          -2.32979574213891   -0.29404681718625    0.14836329700687
H          -2.16596809072513    0.54333562839363   -0.33554658490520
H          -1.73306522957681   -0.95296272208506   -0.27919861590129
O          -1.35298580882488    1.96174197299278   -0.94752657049464
H          -1.21126928062917    2.63112353628394   -0.27539780236205
H          -0.45343578610180    1.67719198064676   -1.20723718225109
O          -0.30015997747037   -0.46010143709491   -3.22622460241560
H          -1.07651073604543    0.08765619794128   -3.36238701573010
H           0.34754719679899    0.10924431737014   -2.77802264822870
N          -0.76291424179170    0.03711980659169    2.17631102862907
H          -1.54163879159794   -0.09576391881627    1.43181714558601
H          -0.08100933762790    0.72546257952435    1.75660350827134
H          -1.12665309632706    0.36835451409080    3.06223264441725
H          -0.26004305970726   -0.88194968286181    2.27680836503779
