    26
        -50.47723505  Gyration_radius:  2.39953122107 Dipole_moment: 3.767
 S           0.00510485374018    1.07374611072887   -1.35795348991610
O          -1.00408409250874    1.21470362516556   -0.31412632453201
O           1.23705413138809    0.49814392358018   -0.80127780450629
O          -0.47325411359461    0.33568406171914   -2.49752780510798
O           0.37447744127969    2.51922275384682   -1.84077146123433
H           0.79719539279031    2.90784755690204   -1.06230586872877
O           1.17638908460817   -2.04244342925202   -0.07393397107580
H           0.50345540948471   -2.35489627440270   -0.70136122158638
H           1.37386916165381   -1.13126085468538   -0.37952547625432
O           0.03251509656695    1.35811455542154    2.10505825913994
H           0.83118931903945    1.87452443479672    1.94624894506694
H          -0.46321786825140    1.41792463237608    1.25804395403242
O           1.92638511171209    2.63907188119618    0.42582413544082
H           1.80664338037288    1.74027495627245    0.03196702080417
H           2.84431059354749    2.87986473363907    0.28769868122142
O          -0.96373386010552   -2.12575267463547   -1.81318335422507
H          -0.77079548900157   -1.20383898360891   -2.12294583019691
H          -1.22992922390877   -2.61287540157909   -2.59489248037419
O          -2.32956183797010   -1.01669133189112    0.30139317170735
H          -2.05482750041612   -1.57027649230466   -0.44947034037571
H          -2.05127365110917   -0.11141290413923    0.05076775276589
N          -0.30629224069067   -1.27495424691837    1.95527752336837
H          -1.23502593452016   -1.24530316865280    1.42895477226821
H           0.39343310666653   -1.66972908912331    1.25463277487687
H          -0.05748768996474   -0.27170200209224    2.16109635065226
H          -0.36253853085083   -1.82798638237168    2.80231207665301
