    26
        -50.46443344  Gyration_radius:  2.61930814454 Dipole_moment: 1.289
 S          -0.77097750707439   -0.82200471939886   -1.90693382152679
O          -1.83490606858569   -0.91050882594755   -0.90868918133323
O          -0.88901287944998    0.36817351540041   -2.72556706556862
O           0.53836135532968   -0.99742835406233   -1.31619797549979
O          -0.98667308000290   -2.04837901405870   -2.89159978542779
H          -1.67352321668977   -1.72977931475426   -3.46853215829163
O           2.79371726883011    0.00126998103665    2.15881129683202
H           3.54248838273847   -0.37151591640181    1.69082451305889
H           2.59790800506147    0.85699352184531    1.72083924662018
O           1.90670837489765    2.18662511409900    0.85066998632954
H           1.42528519320103    2.07499303424314    0.01148016450041
H           1.32729537552692    2.69928171345917    1.41789887109532
O           0.15430172933423    2.23508784164526   -1.26486331207861
H           0.19632150157735    3.01522170262596   -1.82132253359056
H          -0.17838807205224    1.50796823621677   -1.85031095902661
O          -1.61969112255193   -2.62021186104287    1.12857919375255
H          -2.49423253169699   -2.73408855044030    1.50289224495103
H          -1.74157906835960   -2.08633640536555    0.31381884946478
O          -1.37343237638407    1.14988807917206    0.75237766831179
H          -0.92186948607163    1.74970366779325    0.13820826773544
H          -1.77670579696781    0.47312542520689    0.17518522447086
N           0.37146735252112   -0.80754297527171    1.29227290710105
H          -0.17831393411165   -1.62108084843012    1.60516907055835
H           0.55799434024279   -0.94974177510619    0.26270109896545
H          -0.24171148624567    0.04174741054050    1.33497294635855
H           1.26916775698652   -0.66146068298822    1.79731526224210
