    26
        -50.46983892  Gyration_radius:  2.51175503626 Dipole_moment: 2.851
 S           1.16487411011123   -1.34686089793139   -1.26497562955285
O           1.08390560541630    0.10371664364314   -1.32613221943851
O           1.97598366219526   -1.82937485294114   -0.16986045065881
O          -0.15675450286195   -1.96517704704333   -1.28917696722700
O           1.89338001767820   -1.78862366441403   -2.60018285336982
H           2.13056510143687   -2.69241967916840   -2.41907500362955
O           1.13097694575861   -0.66468448189703    2.05187475097890
H           1.57751777936181   -1.19736568747831    1.35903569630440
H           1.37891454019718    0.24970570278386    1.84487978444090
O          -1.43615218467668    0.36418556798755   -2.19202756564539
H          -1.55441433146574   -0.58457154866842   -2.30003069033261
H          -0.48999042006658    0.45706642922550   -1.97808300435994
O          -0.77011279776606    2.80156109602952    1.23611350119924
H           0.11112156047531    2.45482061087885    0.99742242479578
H          -0.76118342664240    2.94552330012017    2.18328988577575
O          -2.47084688710557    0.96298724528236    0.20778735939857
H          -2.23918954953178    0.88702880522385   -0.74533979564205
H          -1.96392817769038    1.73036432758913    0.54107515647592
O           1.64771739017257    1.67236029046397    0.67794389685204
H           1.45186445372061    1.10053769958948   -0.10471394853155
H           2.40881096282285    2.20084332843258    0.43278758815528
N          -1.23642072740215   -1.18359741930028    0.98977619164764
H          -0.88616840007585   -1.59080706745705    0.08450991946333
H          -1.81599743275664   -1.85512753134263    1.48133759369493
H          -0.37458812324326   -0.94219192201968    1.55700774987621
H          -1.79988516783055   -0.28989925815886    0.74475661935144
