    26
        -50.47287081  Gyration_radius:  2.45151892339 Dipole_moment: 3.713
 S          -0.48695115217284    0.42803187528290   -1.51038684097049
O          -0.84504605526647    1.20669497487118   -0.32429456465723
O           0.94967839187541    0.53874298868007   -1.76575903589116
O          -0.91471049536505   -0.94999066992582   -1.39972957996299
O          -1.23895183771390    1.05205253172864   -2.72420282897082
H          -0.87626152419269    1.96022143738249   -2.74632672516724
O          -2.55284999038653    0.03773412839646    1.36094163509545
H          -1.98384999309397    0.43428654800548    0.66885406930127
H          -3.07292754983516    0.75799137039863    1.72092368445443
O           2.43045086061585   -0.92960714524105   -0.22452828581378
H           1.89639734440802   -0.38632204668393   -0.86159099182343
H           3.30747555862014   -0.99651459751607   -0.60511676107904
O          -0.51978031294453   -1.13665189486614    2.64092849742848
H           0.09718432522317   -0.37925697857108    2.51716340155074
H          -1.38739927576946   -0.78861445139833    2.34098897318644
O           1.01685597290733    0.77581934927382    1.59751312303806
H           1.71994057397722    0.31812836739418    1.12021568652208
H           0.36440107261837    1.04245618632556    0.92324895201735
O           0.25350537985095    3.11350062569700   -2.02800506151246
H          -0.13090328779004    3.14996947504209   -1.14545723282937
H           0.88456729900113    2.37643593618555   -1.99744980888630
N           0.22268625021331   -2.35840824065387    0.49056183793426
H           0.10711661759137   -3.36427206096956    0.44159367105309
H          -0.33718722084108   -1.87626563623196   -0.26863662674901
H          -0.10735415185471   -1.95064154210432    1.45036872707264
H           1.20391323032531   -2.07552053050719    0.32818209566008
