    26
        -50.46999622  Gyration_radius:  2.51769550278 Dipole_moment: 1.005
 S           0.54811696691791   -0.98327445501715    1.50987745050975
O           1.65223323307219   -1.05397858215959    0.57558145856834
O           0.33467309935413    0.34017712685399    2.06063809200025
O          -0.68327041118069   -1.52239259873833    0.93660081091527
O           0.93707814375145   -1.92231649383275    2.72013146336980
H           0.25006475725109   -1.75238110548229    3.35695033874665
O           0.41726009558417    1.96116667388705   -0.03221452580192
H           1.35443802949858    1.91367134638037   -0.29207100773172
H           0.37912492048622    1.51979891276950    0.84113226594630
O           1.70324475933985   -1.02277200240820   -2.19266651789292
H           1.76961596572284   -1.33342828334159   -1.27457762592403
H           2.32490983236520   -0.28971308568519   -2.24626314784186
O          -2.53171381515320    0.40841896225963    1.23480794164729
H          -1.98707705609662    1.12002514173636    1.58085050193905
H          -1.94994818052389   -0.37472246946673    1.22360622460951
O          -3.29503441790260    0.41571895020749   -1.36781255705384
H          -4.06268682130871   -0.15019959935576   -1.45551668325915
H          -3.14635207743234    0.52606173118827   -0.40359205073214
O           2.95660223761693    1.03618169033868   -0.42740346210639
H           2.56368323207713    0.24994492406381    0.00873373586035
H           3.69478189112114    1.30705511505563    0.11971510486447
N          -0.65598008671785   -0.08353812830797   -1.32677394203259
H          -0.71384487729017   -0.76051033505200   -0.53455860430501
H          -0.30224371197986    0.83074702659031   -0.91665498647496
H           0.05379565801050   -0.43966603472237   -1.99586630890851
H          -1.61147134652945    0.05992557227370   -1.70265395893917
