    26
        -50.46593672  Gyration_radius:  2.51392978654 Dipole_moment: 2.808
 S           2.05365978105315   -0.05913384555874   -0.21617079555452
O           1.60122361337150    0.77881244038759   -1.31556378892954
O           2.24854112438088    0.70350151808584    1.00063644460631
O           1.19358745218910   -1.21662413127298   -0.02011410304710
O           3.46381427375183   -0.63600536117415   -0.63625337699701
H           3.97766140116190    0.15510802889478   -0.76085202383104
O          -0.14505104014328    2.57471819615945   -0.13678565053655
H           0.02744835207571    2.66521818225497    0.80458636649065
H           0.62745646182821    2.12556305165086   -0.51118504920526
O           0.24233531152659    1.46848095522472    2.50547927423711
H           1.04416272849218    1.19385314879327    1.99857600174196
H           0.50647358677540    1.50229402366071    3.42538898111855
O          -0.88890620479088   -2.23552557421485   -1.54832980519666
H          -1.07790971224637   -1.40830812109675   -2.00907891226383
H          -0.04092434920649   -2.08790487569054   -1.09894472809974
O          -2.63502773206051   -2.25444557333297    0.47198983856164
H          -2.10326293176334   -2.37378819210693   -0.35261433588549
H          -2.56187927701215   -3.07669262034086    0.95757895006767
O          -0.97606718101628    0.57783548549943   -1.94791402167533
H           0.00178740649764    0.60375240706312   -1.86024925001056
H          -1.23100302860675    1.48707722287345   -2.12418401532569
N          -1.08959574200129   -0.08547324037385    0.69923724387958
H          -1.25949649620151    0.42035151041851   -0.19730574789457
H          -1.84050751135877   -0.79506108914541    0.84417494821729
H          -0.18600583182330   -0.59921564395198    0.54666179242936
H          -0.95251444480911    0.57161210735677    1.48123575310010
