    26
        -50.46949218  Gyration_radius:  2.48101837906 Dipole_moment: 2.843
 S           0.37637633112617   -1.25115497335921    0.80766535662197
O          -0.99056229352662   -0.89091724871260    0.40584921394480
O           1.32284915074545   -0.81632566265277   -0.23140482104171
O           0.71103707933851   -0.72020703985957    2.10491883009018
O           0.45327412424424   -2.80072881483431    0.87498383282962
H           0.37035231412425   -3.10374804073399   -0.06024850530315
O           0.41364698493960   -3.24518059437183   -1.73482584900438
H           1.35248025255761   -3.18636738807977   -1.92843830402392
H           0.00754495341395   -2.44656907571680   -2.11875815751189
O          -0.85037847278054    1.26917327949423    3.03601208023778
H          -0.29696512056668    0.51529480010735    2.74866423208888
H          -1.14435512937983    1.04658187584729    3.91988637079933
O           1.82509451482307    1.54662556484154    0.81148640505513
H           1.90426945051503    1.32407179152611    1.74428005101483
H           1.84181262619769    0.67837212236876    0.35363597602907
O          -0.42754584902051   -0.62707438600359   -2.15452685531560
H          -1.08611136679961   -0.79772017676555   -1.45927842173275
H           0.39936999141968   -0.56918018230154   -1.62448282372765
O          -1.03556775062371    2.01867691125224   -2.27917210962072
H          -0.38139729281065    2.48044737012481   -2.80560559991819
H          -0.86601213591056    1.05935558706623   -2.40509209418187
N          -0.79903209344713    1.73343918345104    0.39210073973615
H           0.24054545628147    1.83024050626489    0.56619538375462
H          -1.03879269986917    2.08171306125506   -0.55873364860381
H          -1.00101442107081    0.69450166510833    0.43440066818770
H          -1.30091862390460    2.17667987469035    1.16048804963085
