    26
        -50.47097818  Gyration_radius:  2.46989081617 Dipole_moment: 3.296
 S           1.05980457488983    0.61164489937241   -1.11400476068189
O           0.38745969906516   -0.60339414938411   -1.55557843746210
O           0.22768936672543    1.31639442841650   -0.12214603868590
O           2.38828346938431    0.36723131043666   -0.62114945198899
O           1.16474638022005    1.56939285102669   -2.35179786315565
H           0.24502541756598    1.79411664959364   -2.56266098315443
O          -2.25846524753124   -0.52307867749535   -1.19442329107415
H          -1.30924003289351   -0.67776839306568   -1.37481304177613
H          -2.42370706135826    0.36753111789622   -1.52330544189919
O           1.39251137000156   -2.22718825857515    0.26370517297940
H           2.29818939171187   -1.90753405131169    0.31365246208464
H           1.02693007782266   -1.81790630614715   -0.54830386944952
O           2.49337031150307    0.31076638588737    2.07347637731890
H           3.29786227158427    0.74933104815978    2.35320453254977
H           2.48340393493915    0.38440123978575    1.09947058201535
O          -2.61705152099583   -1.16923391264744    1.34707345581892
H          -2.88233880856013   -2.09004707994583    1.32071635229537
H          -2.57584677007882   -0.87910128597590    0.40041018732703
O          -1.47176753519791    2.15311626423236   -1.88875956973637
H          -1.72344593793163    3.07373872945236   -1.79342181818943
H          -0.95943970241523    1.91519319202831   -1.08235416124789
N          -0.06104899911706   -0.54955416692234    1.74234975017352
H          -1.07583575645119   -0.82053370511246    1.79023495625122
H           0.35970860663258   -0.30161656105514    2.63423924608639
H           0.50773070554901   -1.32103856215158    1.29732828903159
H           0.02547178494444    0.27513698352234    1.09685737457362
