    26
        -50.47244669  Gyration_radius:  2.46194258616 Dipole_moment: 3.173
 S           1.17439477929919   -0.72993098622935    0.66547109153005
O           1.11632859853046   -0.77499717912044   -0.79641454596058
O           1.53312819055357    0.58919263157827    1.14543226539776
O          -0.08109546964407   -1.18741193852708    1.25775963381926
O           2.26039515436700   -1.74711166591240    1.12435725841130
H           3.02922435381422   -1.51818401290764    0.56551447323816
O          -0.42856678265082    1.29424383371743   -1.61742746580416
H          -0.28062141807479    1.96086535145565   -0.93472201700508
H           0.18406649251095    0.56373859466826   -1.41361867468534
O           3.73540558226684   -0.94420413792277   -0.91192872490773
H           4.02823330461850   -1.58725438928693   -1.56186322468661
H           2.80513099070293   -0.73284236661759   -1.12523958783959
O          -2.75085342743184    0.12411134368613   -1.05431512839668
H          -2.02885747625698    0.63821206892957   -1.48418390041955
H          -2.44195284210273   -0.80935328227073   -1.10909150527138
O          -0.09957275309987    2.56431182664255    0.91187129048489
H           0.29787333407612    3.35689084106529    1.27520685232122
H           0.58173323071554    1.84464978133838    1.01382520774341
O          -1.33412349604206   -2.14192804337818   -0.92589897024437
H          -0.94761835867022   -1.98778763092082   -0.04503321484982
H          -0.60760564278427   -1.95444501262313   -1.52905935295818
N          -1.96975723356367    0.64873839434616    1.34011077563847
H          -1.24506432396557   -0.11026145655952    1.44954776135820
H          -2.43699616206686    0.46162330666036    0.36262459066623
H          -2.63927338744159    0.63255189017645    2.10081875214970
H          -1.45395522765974    1.54658224801153    1.29625637026826
