    26
        -50.46548684  Gyration_radius:  2.49640723079 Dipole_moment: 2.990
 S          -1.71256021442016    0.10500388242770   -1.15429940130654
O          -1.77327089376164   -0.28389588108180    0.24466796845502
O          -2.08459052678011    1.47301231335725   -1.39677827808212
O          -0.43451427850685   -0.28525121075088   -1.74933816778394
O          -2.78720027876599   -0.78742916944618   -1.91954732227277
H          -3.57326040699546   -0.25482279201956   -1.85624284913537
O           1.62441922369855    1.16886456647393   -1.04973059797076
H           0.86627682869666    0.61117163670850   -1.34740361635946
H           2.04789324185767    1.49674514856220   -1.84418872794601
O          -0.36709357129379    2.48581778964593    0.40336075820364
H           0.43274652614679    2.25486035317836   -0.09211290645195
H          -1.10843405586872    2.21882557429239   -0.16672584722491
O           0.29411774563820    1.35272243419928    2.71691344552230
H          -0.11097776491827    1.72963750076378    1.90052053542989
H           0.40414029702949    2.09226514766475    3.31567633215012
O           0.33833774619592   -2.78138024832242   -1.43287474908309
H          -0.04174701850926   -1.90396012634196   -1.66818309671160
H           1.09350661074426   -2.90782229063284   -2.00961935046841
O           2.14102027455467   -0.02932547722286    1.39173351695703
H           2.14318826832732    0.43406382420604    0.53808872140977
H           1.60426835674046    0.53581763143898    1.99230635269830
N           0.20705984118812   -1.76713745561915    1.05432016692792
H           1.05352072522002   -1.12974312529507    1.22140300446654
H          -0.62228189866681   -1.14467138737788    0.81000923121571
H           0.36830302062909   -2.36585962486766    0.21875157164141
H          -0.00286778813828   -2.31750904394722    1.87929330574075
