    26
        -50.46709179  Gyration_radius:  2.50186506244 Dipole_moment: 1.256
 S           1.18005162255747    0.91137000330603   -0.79566956317970
O           2.41288015126033    0.28228742115591   -0.34205321774987
O           0.41233610361647    0.02968491999767   -1.65382510621222
O           0.40185849650560    1.47120334130274    0.29211980766519
O           1.59980088022213    2.15540042214977   -1.68443443155416
H           1.99111667797119    1.75902950011883   -2.45592588961388
O          -3.32548060208841    0.71611959410001    0.38185220749158
H          -2.80225108337413    1.49983525464703    0.10042444336701
H          -4.07416195901178    0.67030913892564   -0.21522972109149
O           1.85767385044687   -2.22794391677536   -0.90175221784998
H           2.25152509811747   -1.34965474687894   -0.70425921263455
H           1.22064231375312   -2.03157563230481   -1.59809126003103
O           1.49897599745143   -0.01492774995025    2.17227264426341
H           0.92975948884046    0.67593700750339    1.78551080697384
H           2.24926987098039   -0.01560003413940    1.55763230556675
O          -1.56431386186723   -1.18380980442316   -0.31876648421951
H          -2.21316036579121   -0.52274573207944    0.01231781482013
H          -0.94430969418229   -0.69275660368863   -0.89543767602276
O          -1.77723359745300    2.73546740642517   -0.46872065857202
H          -0.93325955122949    2.27922108249494   -0.25961388166818
H          -1.75844591659123    3.55557223929044    0.02789032500621
N           0.27106240411533   -2.16644658713239    1.22337707490663
H           0.05820844856571   -2.96177374368280    1.81402996136537
H          -0.60023339206034   -1.79476488282066    0.70916750375972
H           0.70804721685047   -1.37013672170115    1.76659526357436
H           0.94964141238191   -2.40930117583753    0.45058917162166
