    26
        -50.47143934  Gyration_radius:  2.46921935757 Dipole_moment: 1.908
 S           0.82832255205808    0.39844217721900    1.74775714361567
O           0.37563620700247    1.63570009679571    2.33516724128953
O          -0.21459508026064   -0.57162996195584    1.49623642080231
O           1.66074882493018    0.61476169840815    0.56182107042785
O           1.78472849010344   -0.27345295827389    2.82898459755122
H           2.13822026556552    0.47671716675715    3.29548016005124
O           0.37002443810579   -2.09370767834967   -1.86251429775296
H           0.97560496935789   -2.27023649803836   -1.10815480620747
H          -0.52050702861681   -2.06689911777358   -1.47658655288048
O          -1.86335903443047   -1.32077773772989   -0.39965330549615
H          -1.25923193821392   -1.02061244324356    0.31924726508911
H          -2.61102981930027   -1.72613787085399    0.04162875098902
O          -1.83367826035093    1.17191298046295   -1.54957807113510
H          -2.08152198929074    0.27968315831514   -1.24750709785008
H          -1.83607642289889    1.71877739656937   -0.73838671285399
O           1.82865721035720   -2.06008696241647    0.39757050413740
H           1.99632783292946   -1.10292910010555    0.42532862577918
H           1.19724541070228   -2.19980688287655    1.10982713934518
O          -1.61756543714865    2.44719150949193    0.80606456373538
H          -1.70658065179036    3.38124466741485    1.00230135777149
H          -0.91213116079146    2.11312225004218    1.40007772788401
N           0.67663850211576    0.51212805761115   -1.90005019111935
H           1.22582850184313    0.96234075316361   -2.62268041370217
H           1.10891666559777    0.65434413941521   -0.95452274452032
H          -0.32492747749631    0.88570904537429   -1.86189424325612
H           0.61430444002194   -0.54579789552836   -2.04596414167682
