    26
        -50.46939082  Gyration_radius:  2.42808164459 Dipole_moment: 2.400
 S           1.85954069573884   -0.59415299939549    0.20429221789530
O           2.03415483337298   -1.27849691161918   -1.05467183838017
O           1.70023015497131    0.84400033148348    0.04355541794177
O           0.79013943727367   -1.15473584004048    1.02158784671922
O           3.18798152616856   -0.82070536125707    1.03321710424871
H           3.84456690465134   -0.73503148271501    0.35071715559760
O          -0.10508589448077   -1.04857231163842   -2.62133862398776
H          -0.69375246631491   -1.60007466720243   -2.08271016048960
H           0.77954473947159   -1.18521493025893   -2.22166878402470
O          -2.42395764138765    0.29570284895932    0.24724796401938
H          -2.25097560409487   -0.63963517858737    0.04911913750823
H          -2.01974233403262    0.46013500922795    1.11719025884938
O          -1.23908692855091   -2.14115826555326   -0.33140789970215
H          -1.37464535151011   -3.05640061931733   -0.08219191151296
H          -0.44791724417236   -1.83315120225690    0.16939526532836
O          -0.71998009036171    0.53762826066303    2.37208011381786
H          -0.68908408816663    0.29737717516825    3.29889688932996
H          -0.09109408254512   -0.06006874621636    1.90794249921319
O           0.03121573754487    2.91209903836861    0.95798682249706
H          -0.39943829007771    2.32288708827316    1.58939571098358
H           0.87133784254783    2.48293059938793    0.76034851636022
N          -0.53571849486798    1.22125353002849   -1.36294729839449
H           0.33916388894067    1.20730307634677   -0.78405473452338
H          -1.35971428099167    0.99827483019721   -0.72874900462822
H          -0.65052560846201    2.13513471285440   -1.78839876612711
H          -0.43715737066263    0.43267201509916   -2.06483388854082
