    26
        -50.47285706  Gyration_radius:  2.4260288718 Dipole_moment: 2.553
 S           1.47414070043768   -0.14659122260250    0.83918231030652
O           1.36011124034753   -0.70669136014968   -0.50511214588450
O           0.63919351841455    1.05364810633369    0.96678624398299
O           1.17190178697591   -1.10847545886763    1.87001850244548
O           2.95615227703964    0.31415027339841    1.02136061168192
H           3.12079340359024    0.83619580134645    0.21747486180885
O          -1.24314848084411   -2.06163647769944    1.72700095084570
H          -1.33710171018890   -2.77459596084276    2.36076840049138
H          -0.30080522664967   -1.75853040831273    1.79704169810877
O          -0.00885407647869    2.02218896233288   -1.45522050750329
H           0.25916262812961    1.76829616134564   -0.55192037838992
H           0.80681193018696    2.02780635495153   -1.96282191131539
O           2.82477765923819    1.13541951058355   -1.55080789040256
H           2.21386058986916    0.38447957256908   -1.36640672066096
H           3.50269994123417    0.79852722242029   -2.13999493745442
O          -1.00187644367653   -1.83302813831516   -1.10809381243262
H          -1.23904187636481   -2.17627177682686   -0.23735321598704
H          -0.09047879790762   -1.49979754408319   -1.00736306823758
O          -2.24194985839433    0.49749661305282   -1.39840957864244
H          -1.87128578800328   -0.41005379326191   -1.51126498497874
H          -1.51395252891408    1.10820181297591   -1.63451488367981
N          -1.92303710413723    0.51408464399257    1.15321062418742
H          -1.94592378557689   -0.46776877341004    1.47625118809654
H          -2.50845677154132    1.11401567077643    1.72282554940837
H          -0.91086988403955    0.81680112750987    1.19049627020888
H          -2.19282335272526    0.55212907077072    0.08686681400790
