    26
        -50.46973908  Gyration_radius:  2.48397138446 Dipole_moment: 1.617
 S           1.00489100437563    1.14537448768067    0.50539771089329
O           0.56456842731214    0.19736090715650    1.53552815321569
O           0.89692316155068    0.53260387166520   -0.81998257586626
O           0.31148537578786    2.40198143504862    0.58113285643215
O           2.52968765978183    1.40768919908087    0.76141770648074
H           2.91640888517756    0.52174230427879    0.84693945220349
O          -1.24003769960624   -2.73725538119364   -0.96895945843553
H          -0.26103266143729   -2.63147423365631   -1.04422666572318
H          -1.39992555701677   -3.12550110520294   -0.10704310095316
O          -1.65264028460685    2.60910337812256   -1.25238714689570
H          -1.62058874290121    3.48519013740365   -1.63868407365628
H          -0.90989525536127    2.57838883302211   -0.61900939753758
O          -2.00853756192953    0.80508308511212    1.42588369470825
H          -1.98068593843439    1.76326259514917    1.34754033043364
H          -1.09372658948642    0.54292022776701    1.65752880391211
O           1.35073191205011   -2.10804326384471   -0.96314665395055
H           1.94169933749150   -2.22062954221300   -0.20974845084918
H           1.25869591067766   -1.14034795192971   -1.05579025389154
O           2.69551022898992   -1.24731957360605    1.39069720792090
H           3.06018506046625   -1.46991076655478    2.24944841616106
H           1.80688332078573   -0.85102605157381    1.55540763124980
N          -1.65979257138978   -0.10402099944794   -1.05561989114441
H          -0.65117417617021    0.19428648253512   -1.10623855563556
H          -1.99401501538607    0.21831960092201   -0.10805773669880
H          -2.17984384092802    0.38386835515319   -1.77966472129531
H          -1.68577438979489   -1.15164603087802   -1.12836327107962
