    26
        -50.46516751  Gyration_radius:  2.53916837785 Dipole_moment: 5.798
 S           0.12858782983342   -0.58464525528747   -0.15900040952498
O          -0.02267880451599   -1.89026838431459    0.42954809977938
O           0.85996580838034   -0.59932347774428   -1.43629983744216
O          -1.13856089211587    0.12473962847066   -0.31011401492828
O           1.03646520295003    0.29838089874835    0.75535419864100
O           0.93770780268816   -2.57534275001578    2.81233097483702
H           0.56952136670709   -2.44496453318434    1.91339474342442
H           1.81371779292315   -2.94345897117458    2.69090244576699
O          -0.69409019002949    0.14639114997395   -3.51609977643705
H          -1.42325315859467   -0.46669420001029   -3.62076767368794
H          -0.11412975327681   -0.24061230804163   -2.83047122257383
O          -2.15755804108141   -0.74654368576712    1.98947532574226
H          -1.94328302902370   -0.37005477048719    1.11454121970277
H          -2.00600071583415   -1.69132304724498    1.89778569689505
O          -1.05330021206752    2.23640616091263   -1.86612437033994
H          -1.28423890058646    1.56872000070522   -1.17871968038434
H           0.41878344767960    2.23157727419965   -1.61945170258691
H          -1.09811268863676    1.71361816013642   -2.69283441852468
O           0.15101143216477   -0.01375431339292    3.08860734360150
H           0.69832027129195    0.21817859529411    1.73008297176139
H          -0.80165149695802   -0.16301568796555    2.88275055020885
H           0.50338845975870   -0.90609417980456    3.27872804902416
N           1.44570849078816    1.89867795453153   -1.40086674852944
H           1.36119206753537    0.82748119392632   -1.48756019904901
H           1.67949295434348    2.08422933059175   -0.42675866572795
H           2.13299494568535    2.28769524694219   -2.03843291964617
