    26
        -50.47619450  Gyration_radius:  2.40301511295 Dipole_moment: 2.093
 S          -0.51667182815990   -0.97837524880667   -1.30651751760257
O          -1.35059984144592    0.04398294361221   -0.70772840865218
O           0.09282114451054   -0.57636379028746   -2.55489627873054
O           0.45230110937490   -1.52239696057978   -0.36689292122666
O          -1.50522856204606   -2.17443074437082   -1.66285069470816
H          -1.01620415118914   -2.61560061591752   -2.34834271660374
O           2.49969142160232    0.12861486194925    0.15014113062848
H           1.91101030751618   -0.62597437090174   -0.05015496522556
H           2.35830645199695    0.74469346299037   -0.58791906409947
O          -0.38966110483048   -1.26195945592608    2.15088599271656
H          -1.35523586380684   -1.29562658143725    2.00829237669138
H          -0.01668894402270   -1.52381400983041    1.28479957567281
O           1.38302943259424    1.59196016887056   -1.89375868782766
H           1.72535853377089    1.99128772400953   -2.69568565510728
H           0.87791909028556    0.79236459801228   -2.18357415985531
O          -2.81845988752313   -1.39346492053616    0.96725467035099
H          -2.41302158531882   -0.78298182240126    0.32171247701848
H          -2.99935215024207   -2.19830831640614    0.47827728465662
O          -0.39707305103712    2.40351872453310    0.07153448442896
H          -0.96782367371739    1.65931476460253   -0.20024815482098
H           0.28579949845079    2.42463182733027   -0.61828723059450
N           0.83492462343665    1.05375873166971    1.98116569177058
H           0.27772025605973    1.70194187191746    1.35272060168428
H           1.65399126894347    0.72598556539969    1.39179626366847
H           1.13430853704530    1.50982116934472    2.83488936370478
H           0.25883896774876    0.17742041316027    2.18338655205906
