    26
        -50.47172679  Gyration_radius:  2.52526944591 Dipole_moment: 1.029
 S          -1.40885652876875    1.22596950253154   -0.71964331340690
O          -1.46179389101013    0.80656607694699   -2.10478098734351
O          -2.12848800860138    0.32218703789161    0.16650248583191
O          -0.05827950740765    1.47322635387710   -0.24094976255322
O          -2.15838341564735    2.61911171038426   -0.66436767645770
H          -2.80390393999175    2.51388364468425   -1.35495434457317
O           2.23254658530641    0.37954450107231   -1.27297856691880
H           1.75975942366236   -0.30603948253352   -1.76922450565601
H           1.53110699644011    0.98237324999364   -0.97610969059367
O           3.25205528920239   -0.46151827305455    1.03760369006428
H           2.99367348019049   -0.20993671812836    0.11645880350986
H           3.92743971091174    0.16387074343818    1.30233870019963
O           0.21803073927255   -1.16064579276083   -2.41559379272349
H          -0.40806735599852   -0.39643045116398   -2.36134985064479
H           0.11648261510827   -1.52765950530882   -3.29538175967721
O          -1.63310630772879    0.33042013338063    2.81126829465989
H          -1.88319931708414    0.39616690697220    1.86688046782060
H          -2.42412272029527    0.05442232712629    3.27545614811417
O          -0.79467442779547   -2.01602151270863   -0.01486702141137
H          -0.38326221585189   -1.94581518458170   -0.89332673683025
H          -1.47819491787515   -1.32102270361942    0.00681983747349
N           0.62065371730885   -0.39330395147232    1.53027990709628
H           0.11955296625475   -0.24686296613795    2.41343898008375
H           0.19248551930297   -1.21914141801373    1.03076690902503
H           0.40616773743937    0.43055479785326    0.91769122287964
H           1.65437775363719   -0.49389903665370    1.60802256205466
