    26
        -50.47027100  Gyration_radius:  2.49053045573 Dipole_moment: 3.340
 S           0.79532485499589   -1.38821137248117   -1.28097748587438
O          -0.25930614116106   -0.90551472877679   -2.16391593192606
O           1.74306715500595   -0.33241728387902   -0.95760293711592
O           0.27907544281904   -2.07856158700106   -0.11850009750162
O           1.60721004161763   -2.46787422007122   -2.10791433325352
H           1.92560878946630   -1.95866521456599   -2.84595228327075
O           2.21567862962319   -1.21071653708095    1.50278026048094
H           1.58323193617708   -1.89453798036885    1.23386331410405
H           2.38424308901490   -0.75096260357163    0.66105984120608
O          -1.52213200595890   -0.84775207044469    1.42650455769434
H          -0.92713847958084   -1.46759566540145    0.95882713260094
H          -0.92665410060929   -0.27817664828405    1.94658845671921
O           0.79341452311309    1.92990691999299    0.15911894408082
H           0.68289210851374    1.60412105818659    1.06730322109528
H           1.17949775081317    1.18313259876031   -0.33683103952965
O           0.55482857106287    0.54322471312039    2.54732682720709
H           0.79258952675646    0.78508155461684    3.44292660034338
H           1.23316363146383   -0.11989692889403    2.24261898093926
O          -1.43648431271526    2.77712115123516   -0.90768055830471
H          -0.57911349714475    2.56093613695822   -0.45041107120548
H          -1.18926665344354    3.15678742927742   -1.75219342978706
N          -2.21325387893743    0.23771446642560   -0.85981697071128
H          -3.14461262960475    0.01179733710389   -1.19051870241127
H          -1.47609992563302   -0.24137397418903   -1.45504779089652
H          -2.03277597794594    1.27686639843973   -0.89407977417193
H          -2.06298845771315   -0.12443293909875    0.13252426948602
