    26
        -50.46234469  Gyration_radius:  2.67623228765 Dipole_moment: 1.646
 S           1.39095574581321    0.71102679372123   -1.90472722138219
O           0.80135037243194    0.51437119207183   -3.20715959539322
O           0.82185749490620    1.83999768674644   -1.18261381656813
O           1.42519453159706   -0.49366733365659   -1.08409714099750
O           2.92177816362524    1.07226422877005   -2.15289921128297
H           2.86260180924343    1.68968321390199   -2.87452054822113
O          -1.90395355503195    0.52492476483378    3.08950776476416
H          -2.55833459468827    0.39379258199617    3.77518150987482
H          -1.49067324707793   -0.34977619108722    2.93365415720445
O          -0.60588375377687   -1.76006043187166    2.32174900232529
H          -0.92467780410747   -1.94856305780470    1.42950126950490
H           0.33169364549261   -1.54634879946071    2.22087278206575
O          -1.73292795859035    0.00708514509438   -2.66497166960433
H          -2.13565573896587   -0.30620284489851   -3.47672060327060
H          -0.81158262856313    0.25543347113304   -2.90112940098823
O          -1.03939576111178   -1.31661988481012   -0.45959283489628
H          -1.52568893325332   -0.96940826125400   -1.23486941125881
H          -0.10488932599427   -1.28360517057459   -0.74264906000619
O           1.82848954143640   -0.49790180947343    1.50683710560226
H           2.75517954919960   -0.39433756714437    1.72425082123132
H           1.77877748753176   -0.55858903613496    0.52230913460328
N          -0.43393344319976    0.91528682587480    0.88457372595592
H          -0.04098437873696    1.48963742242893    0.08990015701921
H          -0.86761825668742    0.05915856883544    0.44496666402122
H           0.36860431691510    0.58203042376669    1.44153000926054
H          -1.11028328897352    1.37038807730643    1.50111642020131
