    26
        -50.47225774  Gyration_radius:  2.47927507737 Dipole_moment: 4.365
 S           0.84654098010528   -1.44999463508152    0.86045534577790
O           0.54565942762422   -2.03151381291120   -0.44782912217623
O           1.21955405924484   -0.03217749767841    0.68901079583981
O          -0.23053605420178   -1.58725308942578    1.80484420318192
O           2.09993822774288   -2.17343184626736    1.43334265660468
H           2.75127150399813   -2.06215518494286    0.71236616199364
O          -2.44267843568162   -0.32995066346522    1.06952810183845
H          -1.80741832647263   -0.95915392857489    1.47138248334367
H          -2.36210317511236   -0.48852438415375    0.11127215667383
O           3.11173342717515   -1.54170684448548   -0.93059714572458
H           2.18752353587888   -1.79644036097142   -1.10065287240044
H           3.14110418302224   -0.58360119226477   -0.99852426323060
O           0.46674556494696    1.01293862035356   -1.66542534239752
H           0.86703669994821    0.63907157897624   -0.85586449896563
H          -0.28464905903838    0.43186961196991   -1.85647712508449
O          -1.56285061742336   -0.91223511463846   -1.46211786859454
H          -0.78770733283602   -1.40414167634297   -1.08587882966391
H          -1.99257336163734   -1.52206131425516   -2.06435823455230
O          -0.66727580211826    3.17191169771493   -0.66035817399727
H          -1.44806775935838    3.34716807834074   -1.18767511583393
H          -0.15298530175862    2.47596454765932   -1.14698943384736
N          -0.70439123712210    1.58396474932067    1.48322659093623
H          -0.74617565062801    2.33361233692044    0.74630949696183
H          -1.53767768218917    0.91994860149344    1.37925594908080
H           0.14362067055523    0.98369129610954    1.28441598861040
H          -0.65363848466583    1.97420040660183    2.41733809562916
