    26
        -50.45882038  Gyration_radius:  2.5493779004 Dipole_moment: 5.476
 S           0.99819021211406   -0.28231769242053    0.22471941710704
O           0.55589704436703   -1.38935611704858   -0.62543878539372
O           1.93803353983430    0.58255892012081   -0.49163977374178
O          -0.25367228012827    0.63235605203800    0.44572363420390
O           1.48164309233152   -0.72082061695383    1.50792492134869
O          -0.41245517313455   -2.83398984407766    1.38130843496352
H          -0.06983350096640   -2.44488672671483    0.55362633960950
H           0.32820304731190   -2.80005237849856    1.99350739996905
O          -0.01982489461624   -0.89435815799735   -3.08385540294411
H           0.44356729187802   -1.55167932280919   -3.60612742773370
H           0.11909682100326   -1.15668381922427   -2.13213513185424
O           0.31020823978993   -0.14425444518444    3.81806699787650
H           0.84656501384428   -0.38355193890155    3.03258994089414
H           0.69295378993111    0.66165717386104    4.16641039109867
O           0.99052418528687    1.38838626438829   -2.60853580709720
H           0.60435808128439    0.51320267050435   -2.96337287247782
H           0.15330069007160    1.93778184172781   -2.25941692190089
H           1.48159744516637    1.07796547974822   -1.70112258961757
O          -1.69096077864537   -0.61665788417206    2.08052184699511
H          -1.43609720935290   -1.54482756990548    1.86026760531926
H          -1.20158251602155   -0.41634579067529    2.90302778201653
H          -0.88727564114957    0.13644118388487    1.09831977459530
N          -1.04547112691542    2.50338467194281   -1.56299153187610
H          -1.02299981280526    3.48957766753313   -1.33957902999515
H          -0.96949509821080    1.96916856050016   -0.69650946514853
H          -1.93447046227400    2.28730181833020   -1.99528972620241
