    26
        -50.47339498  Gyration_radius:  2.40616559871 Dipole_moment: 3.101
 S          -0.64317541223742    0.02594613483075   -1.17907401486516
O          -0.84997153999632    1.46252731611598   -1.18130344123352
O           0.59102132492611   -0.34026815333307   -0.48089145699174
O          -1.77233200443609   -0.68989493960154   -0.60012908019481
O          -0.48795902200263   -0.46762068971109   -2.65095772439779
H           0.23964468608169    0.09160568063295   -2.98537165315477
O          -0.07989010542598    2.25580403226981    1.22232110662899
H          -0.46445231845116    2.18389338399385    0.32398141688907
H           0.87798467362693    2.19666848822242    1.06303137478255
O           2.34298785604755    1.51739004719414    0.08087482911355
H           1.72606879639621    0.78989064299593   -0.16259926935128
H           3.07900713829112    1.10380093191261    0.53473361494223
O           0.60466465295518   -1.85553157878074    1.72471285643156
H           0.85572944491586   -1.38618348186615    0.90561682348898
H           0.04255389591314   -2.58516482467542    1.40209358172059
O          -1.23777844383960   -3.17915137530475    0.25215942036370
H          -1.51628301442873   -2.31843779797820   -0.12026520868714
H          -1.12149419923198   -3.76659153259808   -0.49566665203486
O           1.29283966408804    1.52068577548679   -2.75261421102264
H           2.02135618811393    1.59012639926441   -2.12481571265926
H           0.52592836374644    1.89141260583873   -2.28637993090887
N          -1.22597205035607   -0.00316198544732    1.93364880571368
H          -1.66633829389264   -0.23896081575050    1.01483062444997
H          -0.47920708063511   -0.75995465567803    2.07712323610016
H          -0.74492917912363    0.94264548679625    1.80225119946936
H          -1.91000404104128    0.01852491516901    2.68268948540735
