    26
        -50.46862411  Gyration_radius:  2.56434236997 Dipole_moment: 2.407
 S          -1.24743714555581    0.23976708968000    1.69542353681675
O          -1.67973024716907   -0.38567207322526    0.44104479437590
O          -0.20954803395886   -0.54517113994668    2.34471975936580
O          -0.90508219122857    1.62725738803081    1.52055185590989
O          -2.50458211880642    0.20128144429930    2.65924460920081
H          -2.60962332855835   -0.71789132045233    2.88843929409257
O           2.05794159999222   -1.80163958828748   -0.84967911480451
H           2.31659165666940   -1.08777754424955   -0.25655430329342
H           1.29386451701752   -2.23537896576774   -0.41248536757035
O          -0.89317517384155    3.22052217191265   -0.62654030843268
H          -1.71720649304379    3.70539278842852   -0.68449301111848
H          -0.90449416991437    2.76618551187594    0.24131519480533
O          -0.14196121330133   -2.58652662822331    0.51367927362260
H          -0.82503205450199   -1.91953152629198    0.32213068834081
H           0.13752818889153   -2.36585410346019    1.41005945076995
O           1.00117293051025   -0.87873778438865   -3.08597827410983
H           0.49196319802945   -1.59444832330786   -3.46870619921456
H           1.53254539833013   -1.28320838678340   -2.35338931172897
O           1.71675233805095    0.48352980503024    0.89222405295232
H           1.06625540812711    0.05791186597875    1.49831854778157
H           1.92161096247323    1.32903766502642    1.29697449433640
N           0.01935308955863    0.76106324536291   -1.22839461717822
H           0.30398339243210    0.24488651282692   -2.09656283591126
H           0.80731646087793    0.74375994006152   -0.54582624833663
H          -0.26073645142309    1.74452915435583   -1.37934868183573
H          -0.76827052957966    0.27671282158871   -0.73616730876884
