    26
        -50.46920236  Gyration_radius:  2.50103382561 Dipole_moment: 3.008
 S           0.66828255011392   -0.65731695053263   -1.34587214112389
O           1.00762363641749   -1.29366224647462   -0.06475637957798
O          -0.74712500554844   -0.91222721112219   -1.65304796222483
O           0.98306974727247    0.74427317870897   -1.35751171871575
O           1.52405722704948   -1.35828409035860   -2.44474153383461
H           1.21739379013511   -2.28450368051507   -2.38537784181917
O           1.11908944874545    2.53383774049642    0.61876797984663
H           1.19488217763908    2.01480491305252   -0.20467580783268
H           1.36925049520696    1.90129135440813    1.31307319810580
O           1.88575960589503    0.24932802964914    1.94249248403045
H           1.67570955338093   -0.29901604594380    1.15685031835940
H           2.83419549447361    0.18930673223860    2.06450208494191
O          -0.74242788865739   -0.94446989973167    1.92602998816436
H          -0.17048563333483   -0.44280363764415    2.51719621327649
H          -0.14077386267188   -1.24793911694305    1.21346243932222
O          -1.41429904669136    2.95994799416405    0.22299592834208
H          -1.39915095861098    3.41248090532846   -0.62222021696140
H          -0.45324650524020    2.87893433194977    0.48842346840125
O           0.13245987141867   -3.43707110564309   -1.59977278092045
H           0.49217195909741   -3.32933830242760   -0.71254949056440
H          -0.53647307805450   -2.73836623540126   -1.68752482447533
N          -2.12496036441738    0.42071825153382    0.12191620195186
H          -1.64282854700570   -0.05102732313834   -0.69767123427788
H          -3.12905232700111    0.28311368821603    0.07392667828285
H          -1.72059413909493   -0.04984240657258    0.97622474336573
H          -1.88252820050935    1.45783116271176    0.13986021594089
