    26
        -50.46991062  Gyration_radius:  2.54515878439 Dipole_moment: 2.429
 S          -0.21672318693861    0.26128970049173   -1.35173038874116
O          -1.16649303389620   -0.67888451773143   -1.94098932638805
O          -0.80888254432795    0.93159677229283   -0.19087934092641
O           1.03686754402226   -0.37452833814253   -1.00416101805547
O           0.10539170884325    1.35900379018565   -2.41134873009412
H          -0.77273356951261    1.59900153079129   -2.77453419330435
O           2.73487908952662    0.20601052742340    0.92084904096091
H           2.10615075200744    0.00958408778490    0.19078739381397
H           3.60902554235297    0.04533945287679    0.56406755969569
O           1.00425723006589   -0.17329178477188    3.01514603789337
H           0.81404468371875    0.77684069851240    2.83821651190118
H           1.79617400139899   -0.32713774107193    2.47484264120243
O           0.71621966533988    2.13763356275154    1.72068198078908
H           0.10300377548415    1.86477380876245    1.01498651142835
H           1.59884558682255    1.98000102850844    1.36631522323583
O          -0.37324365161540   -2.68781417245741   -0.40620985987466
H          -0.79575305222191   -2.11168008209402   -1.07727648664588
H           0.56778480240376   -2.53556100750493   -0.54236949440651
O          -2.39781922060301    1.24242081206861   -3.22685228173367
H          -2.55055815301568    1.00617211138519   -4.14474713995952
H          -2.20602017539554    0.40776646463278   -2.75224886858238
N          -1.00083688594273   -1.00544213203065    1.56297544427415
H          -1.06713517909519   -0.17355909679451    0.91273423563852
H          -0.77352638891059   -1.82418766370926    0.94023809714579
H          -0.19155785788889   -0.78576033159327    2.23832055215270
H          -1.87136150260189   -1.14958747055342    2.06318590854782
