    26
        -50.47023637  Gyration_radius:  2.49887870266 Dipole_moment: 0.916
 S           1.29033864118414   -1.51953252584182   -0.26722986173168
O           0.94731799226988   -0.62354904744423   -1.36906435901497
O           2.48443574320087   -1.09436981155074    0.42616729996322
O           0.15656054879893   -1.75555019596434    0.61089681499105
O           1.63078981792615   -2.92488744041485   -0.91864574800343
H           2.57442755522539   -2.88844858762445   -1.03767698691853
O           2.08117797046386    1.26329201358407    1.58858131159366
H           2.41078354029607    0.40735266061482    1.24175896657774
H           1.82995995993563    1.76959072200195    0.79935014673427
O           0.86673010980075    1.92691051236184   -0.82464759145902
H           1.16553968491317    2.39589634423846   -1.60515595225811
H           0.89761854221966    0.96590896363790   -1.05531296234806
O          -1.58175657021878    1.95211457239063    0.45482496896032
H          -2.17593133494288    1.38503563427190   -0.08312597679766
H          -0.79315330747990    2.11479600901441   -0.09135002937805
O          -3.01060112486423    0.24569010603972   -1.03315533354307
H          -2.46537167046256   -0.54940821414231   -1.24406157808030
H          -3.48411816775383    0.46477599891105   -1.83618860041583
O          -1.41357247187027   -1.81449114069285   -1.60794974476573
H          -1.24932471409112   -2.24271062764150   -0.75937236576894
H          -0.57622560363696   -1.34931261370103   -1.78197568035776
N          -0.33396689632294    0.36827427694695    2.11040951954788
H           0.64175285028100    0.79243445629051    2.10898161947421
H          -0.24155286926634   -0.54372737286686    1.59909780763273
H          -0.69433812645954    0.23206580935799    3.04767365554809
H          -0.95752009914444    1.02184951818777    1.52717064981080
