    26
        -50.47168418  Gyration_radius:  2.41960963341 Dipole_moment: 4.585
 S          -1.83227760513256    0.38539171097505    0.08578669920650
O          -1.70192879074861   -0.50666929780591   -1.05982785303158
O          -1.74997387095961   -0.34028178491720    1.34241174922183
O          -0.92202668931588    1.50586787792262   -0.00231610106607
O          -3.29069486507327    0.99111051619678    0.03409306837313
H          -3.80956268536016    0.28847298516726    0.41038075332387
O           1.98681410374128   -1.18616015995947   -0.33668174901674
H           1.99574653120304   -0.38461774460678    0.24244170538145
H           1.30384524832269   -1.76875185876280    0.05551197699361
O           1.49906908977416    0.99195746748929    1.09200967563573
H           0.62050146355165    1.24894220682346    0.75806660743000
H           1.31233767805659    0.61059095881991    1.97083879846230
O           1.00816018440411    2.48857895884191   -1.58519083743174
H           1.71578542367332    2.50155762753851   -0.93263301225382
H           0.18779566416093    2.42847926959097   -1.06299693427186
O           0.34903161680098   -0.42378176052212    3.09897623326273
H          -0.49874849503004   -0.31141137639418    2.63628409651372
H           0.55800544835003   -1.35837588041376    3.03004235494340
O          -0.26169840543280   -2.39426229543693    0.54937556252332
H          -0.82455308173305   -1.67131546387283    0.89271497337903
H          -0.72599116704957   -2.71719317293457   -0.22547912360996
N           0.61803249303044   -0.07909818225217   -2.23365569175162
H           0.82935900603891    0.94827429700033   -2.15136747236109
H           0.71532840230170   -0.40622229024074   -3.18806685794039
H           1.27757014752194   -0.60255210565927   -1.54872999651413
H          -0.35992682517187   -0.23853047259451   -1.87198864546761
