    26
        -50.45198895  Gyration_radius:  2.60450410775 Dipole_moment: 2.750
 S          -0.46413810080787    0.51660748946471    0.16406478896160
O          -1.78659645385772    0.60267255297525    0.87565285008760
O          -0.74201753453501    1.18504796229845   -1.18748568027590
O           0.55718446024115    1.26509070029250    0.86146612916468
O          -0.10213511110913   -0.86926874072455   -0.05059932293117
O          -0.50238661754044   -2.52702701534742    1.99346384100385
H          -1.02009932855406   -3.26442601811781    1.66554068978073
H          -0.24377990540130   -2.00021508652578    1.20944618816406
O           1.85126483344868   -0.68334473705092   -1.96131589306629
H           1.26302711636108   -0.76274125918146   -2.74249698634382
H           1.28969342374560   -0.93508374886338   -1.21069247394998
O           0.53053598084681    1.08435921974782    3.51472521023104
H           0.67982648391220    1.16332488969823    2.54952385601944
H           0.45413811434406    1.97918246760381    3.85093482130735
O           1.62128226951224    1.87665326196004   -1.58456123355597
H           1.80000918281888    1.98386492038919   -0.64175990959492
H           1.91873875631865    0.94793487741435   -1.81375551471675
H           0.18517509071582    1.57896353318606   -1.45990968431228
O          -1.58929004473015   -0.40704049366280    3.10117685794528
H          -1.76471280688782    0.15213205105664    1.90945856565527
H          -1.22603062516437   -1.29891669803545    2.86382702844812
H          -0.82061678558919    0.10851046168291    3.45929107892657
N          -0.23212917715263   -0.50304383637890   -3.74074474929712
H          -0.77887943683415   -1.30313858701318   -4.03275706736357
H          -0.10849581201483    0.10082251367795   -4.54373274629933
H          -0.76956796208102    0.00907931945320   -3.04876063399233
