    26
        -50.46999618  Gyration_radius:  2.51770232468 Dipole_moment: 1.006
 S           0.31350816004779    1.04625734478205    1.53289839313790
O           1.09991749554871    1.51516686154702    0.39390563902639
O          -1.10475223066488    1.24023287754937    1.30629521557231
O           0.66377837083187   -0.30805328176328    1.90701999243202
O           0.70585409518478    1.95660410919977    2.76388736121612
H           0.35046714923861    2.80759467515387    2.52739665447248
O          -1.82807233089967   -0.79757235803950   -0.22328368422721
H          -1.74431533556818   -0.00691930571479    0.34836754628701
H          -1.74012498165294   -1.55273800576451    0.38508002516521
O           0.31705573007400    0.89408866316201   -3.46385569231831
H           0.92029050497624    1.44685560550807   -3.96167449070444
H          -0.15308682917007    1.49304344024613   -2.84399920275768
O          -0.97058397760388   -2.40469741298658    1.81174105410070
H          -1.46954446271123   -2.52004452153030    2.62125800624892
H          -0.38310857029568   -1.63240216806248    1.95729471268267
O          -0.68976620437320    2.36880001314382   -1.42238929813634
H           0.00594564549497    2.20754188337989   -0.75759196103815
H          -1.50941248764170    2.10700994097038   -0.99527363291293
O           1.66769807080004   -2.40937097903459    0.40864334728608
H           0.97374916341519   -3.02348291365601    0.66938106069069
H           1.60779435535732   -1.68444110675508    1.05258931509610
N           0.61020331961570   -0.56466864970716   -1.22751674907708
H           0.67260142486568   -0.29542563527339   -2.22680922466746
H          -0.40975061863218   -0.71689228473200   -0.97091617216789
H           1.14943588069042   -1.40482588042847   -0.94188911320491
H           0.94421867307827    0.23833908877285   -0.65055908216263
