    26
        -50.47227676  Gyration_radius:  2.37464942657 Dipole_moment: 3.574
 S           0.65507922079423   -0.14610514163407   -1.40413263339289
O           0.35397720813864    1.02098328786520   -0.54773538290112
O           0.93293122059510   -1.31014422905943   -0.58528821377706
O          -0.40157485623016   -0.36678909182881   -2.36559161828865
O           1.94536439369525    0.21178848689369   -2.20801130325376
H           2.57673477361076    0.49460908875033   -1.52636817831045
O          -0.32431074010736    0.20520704019571    1.96316619683559
H          -0.07406638064954    0.53519407767039    1.08127293000767
H           0.51076197999234   -0.16690767993527    2.30241083046395
O           2.87634670867950    1.34663480373412    0.04148099764581
H           1.89649854830187    1.38242604689227   -0.00930143673241
H           3.19136476045714    2.25217005665280    0.00958238963288
O           2.17906977774723   -0.83240684821401    1.79817174121935
H           2.78717867529886   -0.14019403843653    1.51935212059155
H           1.82503433157983   -1.20223195479721    0.97046620474458
O          -2.16151659383446    1.75873547804326    0.18922308674602
H          -2.02609241234746    1.62698312963144    1.13392874995141
H          -1.26711574742111    1.73588615835363   -0.19885006718861
O          -1.26709463267313   -2.00586613567786    0.79850099620266
H          -0.44186632254157   -2.05835552522657    0.27933775565407
H          -1.06602373775554   -1.30668109237171    1.46164892507574
N          -2.58107163763132   -0.61300736356629   -0.95166439987438
H          -3.45052943157256   -0.93197401360534   -1.36399959851429
H          -1.80590169145289   -0.54112375443898   -1.66860043246552
H          -2.66649458745354    0.33981964699394   -0.51617199005325
H          -2.19668281722147   -1.28865042288608   -0.20282767001965
