    26
        -50.46831362  Gyration_radius:  2.50822242093 Dipole_moment: 1.276
 S          -1.52508938055879    0.48044774981821   -1.03022022155950
O          -0.73962855529872   -0.31793918800743   -1.96241033970546
O          -1.99019569069094   -0.32008542803445    0.09001365212347
O          -0.82761320474133    1.67961530503484   -0.61468033680057
O          -2.82591656909640    0.94986738316360   -1.79696559982745
H          -3.42017188762890    0.22126408027481   -1.64804353662030
O           0.75036148596889   -2.50070165215621   -1.20699932467622
H           0.06276597095992   -1.90344653244034   -1.55172769979468
H           1.55155655967638   -2.24136869777304   -1.67217293772760
O          -0.11518086672132   -0.42181742953928    3.55900777142029
H          -0.27835924899876    0.45324715797483    3.14792471593929
H          -0.94983460033769   -0.68838712200685    3.94675647313418
O          -0.48895356032827    1.83749150937018    2.08686625916925
H           0.34549630011835    2.31042954419054    2.03761522734459
H          -0.80791721290792    1.78070403228432    1.16813767271333
O           1.70846040164590    1.07212633235186   -0.04307640740803
H           2.05121595232117    0.71024931713365   -0.88031863324876
H           0.86501241256416    1.49865283142020   -0.29012215459166
O           1.84560587171203   -0.03751884622399   -2.52344892628813
H           0.87248177283574   -0.10458549375216   -2.41062207404361
H           1.98817712849037    0.49007681834742   -3.31014846371223
N           0.40141433078043   -1.01185141625583    0.99774554902060
H           0.67648831023240   -1.84845426465322    0.45092712072933
H          -0.58300353651211   -0.77306684349124    0.71590595519790
H           0.41149729700203   -1.10946788172466    2.03052001003526
H           1.02133053956565   -0.20548124533141    0.70953625923171
