    26
        -50.47420761  Gyration_radius:  2.40789382876 Dipole_moment: 2.285
 S           0.27357161913250   -0.68262288321297   -0.85179520296007
O          -0.50776794929225   -0.70348538221574   -2.07169333443188
O           0.64909350698377    0.67980365045408   -0.47771016575688
O          -0.35973667667424   -1.38217278966419    0.25554904402418
O           1.61889176757443   -1.45608473995253   -1.11551497318194
H           1.98302555009159   -0.98272609511883   -1.89123510648977
O           1.77051540153634    0.33663396736051   -3.03158184089327
H           0.84548136919257    0.05328409424722   -3.11055885002746
H           1.75526458952077    1.07960141224258   -2.41906087324368
O           1.83637819397996   -1.88283270418232    1.72595078522226
H           1.00638873619406   -1.87226018160581    1.21477270060052
H           2.50907023929715   -2.16892754546611    1.10448085876891
O           1.51062014809732    0.77094582525705    2.09375849668027
H           1.38818446882637    0.91487682121953    1.13656820805748
H           1.83109690914574   -0.15099205093190    2.16368666998773
O          -2.87964245057759    0.22413386863340   -1.30632931548670
H          -2.05329976389475   -0.20893491329747   -1.60378804615719
H          -3.42687494632969    0.31875769948443   -2.08824560794692
O          -1.60496118421119    2.02938595320493    0.22112246283879
H          -2.24066732507948    1.52843149633604   -0.32800471486821
H          -0.73106519057002    1.78549053062899   -0.13484649448663
N          -1.06430660538848    0.34998038715042    2.14412759217853
H          -1.63550673901409    0.15446117346342    2.95789148187652
H          -1.44386697453263    1.13639503012109    1.52942102021821
H          -0.05223832031785    0.60273230221106    2.37792552099546
H          -0.97764836395755   -0.47387490624773    1.50510970451349
