    26
        -50.46906536  Gyration_radius:  2.55443187457 Dipole_moment: 1.395
 S          -0.07619297856271    1.58973122032879    0.20453108183877
O           0.23732186384370    1.39586732161249   -1.20799187626209
O          -1.38274245028878    1.03708146593909    0.53929602690510
O           0.96321083295070    1.04899565585445    1.06787244612965
O          -0.12000307913233    3.12548764474103    0.47580817506757
H          -0.71150093607018    3.44094717977573   -0.23438731772087
O          -1.35659885300575    3.36355860230079   -1.84934733786265
H          -0.85152517568301    2.52398128189418   -1.85158395635601
H          -0.94930396545230    3.92743063468104   -2.51097182596892
O           2.67671524904365   -0.77605813306432    0.19030223501842
H           3.49872558798906   -0.38960779718687   -0.11441810865247
H           2.10647421060769   -0.02396336566660    0.46560138282695
O           0.97289706073246   -1.22791354281094    2.49713762063980
H           0.98736112983552   -0.28696404601349    2.23340480008433
H           1.68392860015108   -1.62622608626474    1.98179240572798
O           0.77078744406268   -1.17673793927907   -1.74153963964449
H           0.52191638497862   -0.23438356419955   -1.66888477063056
H           1.53446388242779   -1.26994413700934   -1.14624398720034
O          -1.21731495826496   -2.68858946649719   -0.98864305689174
H          -1.90688376804417   -2.52389998480595   -1.63366850078049
H          -0.41871476695515   -2.19069497681520   -1.32070681977025
N          -1.40976550907367   -1.42794975737634    1.33571707675626
H          -1.46579261369953   -0.40417164390602    1.02982404082040
H          -0.49977386190634   -1.52048165172182    1.86160345312234
H          -2.19834593385313   -1.66691777876238    1.92644134069060
H          -1.38934342662044   -2.01857715574236    0.45905513211166
