    26
        -50.46742182  Gyration_radius:  2.52125877129 Dipole_moment: 0.848
 S          -1.55954049372621   -0.67007508800873    0.83379355778871
O          -1.39436997874816   -1.13231728237499   -0.53230006615818
O          -1.79240415182433   -1.70452504087396    1.80655958287113
O          -0.48230071148117    0.24250433701494    1.20968609769711
O          -2.88187250056727    0.22173106733464    0.80332274453576
H          -3.20082623651218    0.18862623478529    1.69977565766777
O          -1.08502126780551    1.06893752327289   -1.91597518802070
H          -1.31938023624542    0.25621394350611   -1.41039696714363
H          -1.73992764286253    1.15155191568924   -2.61019015359198
O           2.51123193065296    2.48416884147474   -0.12487367958752
H           2.96543759041618    2.78862129314620    0.66113705478509
H           1.56897748888975    2.75128919569038   -0.01805144591323
O          -0.15895774523817    2.74846594080944    0.18007858055164
H          -0.33392148252417    1.99198468044529    0.76503638305347
H          -0.57564287359353    2.50146923880774   -0.65685442930221
O           1.01340423643564   -2.40284065179732   -1.06179890760033
H           1.09101303989310   -2.68427607082235   -0.13035267862152
H           0.06915358480923   -2.20039111345384   -1.15464730368440
O           0.65403688160868   -2.72610863403119    1.59423911438167
H          -0.23518338524142   -2.33893885959465    1.71923469709167
H           0.66858479522272   -3.52855672273327    2.11983533463958
N           1.28087668070148    0.19602304654673   -0.76926680880053
H           2.08247910192899    0.82976614823833   -0.60317330194623
H           1.48383551934340   -0.81640440665731   -0.97962018924973
H           0.67489896066637    0.19603237729028    0.09271353882684
H           0.69541890579089    0.58704809630982   -1.51791124425967
