    26
        -50.46893113  Gyration_radius:  2.43916847008 Dipole_moment: 1.757
 S          -0.44510436367829   -0.76264378151627   -1.63761490372925
O          -0.00296528358642    0.51510711528004   -2.15932266010359
O           0.50041499701628   -1.30436026359451   -0.66415488180733
O          -1.79218166281792   -0.75124387301233   -1.11108893457902
O          -0.43342275258274   -1.74454119374205   -2.87927545860139
H           0.11501824162654   -1.26326302801312   -3.48963756677516
O           2.90570770403835   -0.22773484426669   -0.34770049979745
H           3.47880316440460   -0.96997229331648   -0.14989277923550
H           2.02965283354454   -0.61032162531513   -0.56614043081139
O           1.85525932518735    1.42342489805490    1.51820941809234
H           2.42143854951101    0.90890696875280    0.90766263950184
H           1.33570605798401    1.99854034116207    0.93015827612196
O           0.18154707376206    2.46258747575875   -0.42884331999035
H           0.33133254787814    3.26967746996936   -0.92353224605781
H           0.16942757495201    1.73417311613501   -1.09794563821784
O          -1.92444688899642   -2.26439816589731    1.14751050147003
H          -2.63558739238712   -2.90157914645490    1.07301986359604
H          -1.91563868105446   -1.78017555926469    0.30273122734632
O          -2.01096405736214    1.23066798598662    0.70447145067337
H          -2.17033841008450    0.59624615345141   -0.01811023877435
H          -1.40204285407569    1.89577245491695    0.34355550544984
N          -0.11265002490996   -0.30070570274754    1.74270885344522
H           0.71093695508657    0.35523912700477    1.88754346701087
H          -0.96751255342969    0.28322660249678    1.51613150955764
H           0.08814326278231   -0.86348853921384    0.88524056256931
H          -0.31053337277198   -0.92914169245274    2.51431629350431
