    26
        -50.46999521  Gyration_radius:  2.45720539749 Dipole_moment: 2.429
 S          -0.05069010011001   -1.46186966708437   -1.19012544695088
O           0.45820244369884   -2.05729425391125    0.03869422674208
O          -1.47064236264429   -1.16615646933660   -1.08926154660986
O           0.74172737090401   -0.33094266768615   -1.62029585589194
O           0.07494224940926   -2.55894282602234   -2.32055857224861
H          -0.71514534621059   -3.06138719179517   -2.15695507497765
O           1.81603880148829    1.36744084893351    0.22241454389716
H           2.06770278540339    0.73603091186426    0.91517397192708
H           1.56578502973233    0.81181305683587   -0.53561795195866
O           2.27038919851283   -0.94011052658049    1.65726263311761
H           1.70046834740301   -1.39954469328552    1.00484630626571
H           3.13945495603788   -1.33611315358440    1.58275745932324
O          -0.65809123248403    1.83192858571339   -2.33119166873070
H          -0.21631427805010    0.98138048202428   -2.13187875350437
H          -0.11806650733248    2.25729063488598   -2.99951998881730
O          -0.50974486143840   -1.18144180827830    2.39603813177787
H           0.34182954707867   -0.89325730157627    2.74306974580264
H          -0.28131398676134   -1.68364308546982    1.58886829961182
O          -0.52267555442782    2.62686519964495    0.23853965523411
H           0.40605677385396    2.32085999237312    0.36239272409230
H          -0.66096903004873    2.56740742357044   -0.72950134294281
N          -1.89592468204938    0.52309279683887    0.88378927942358
H          -2.86589681245545    0.71000721556918    1.11282906144179
H          -1.83205766170952   -0.08926992700283    0.02815485638972
H          -1.36018973743117    1.44557654876909    0.68127793834244
H          -1.42487531037006   -0.01972012541602    1.64879735924261
