    26
        -50.47723509  Gyration_radius:  2.39961007446 Dipole_moment: 3.771
 S          -0.57746712384341    1.32672474850769    0.95205412670487
O           0.84229153563722    1.15838231180588    0.61285112960192
O          -1.41846691680649    0.74625555889228   -0.08905449524857
O          -0.88686423900342    0.81996309567361    2.26349376993289
O          -0.84831616927457    2.87118427881515    0.95593102101260
H          -0.50354802199253    3.15469943359765    0.09767572685143
O          -0.20639337865597    0.59322296886918   -2.42453151663476
H          -0.79376282830202    0.68963036905941   -1.64188882981953
H           0.31038939370442    1.40727093277780   -2.43158010548468
O          -0.32026405503125   -1.71641193608590    2.38347736164821
H          -0.48014211282165   -2.02290635694463    3.27772837796976
H          -0.53174201157163   -0.74778089529825    2.38890250038375
O          -1.71361984405417   -1.90255700509346    0.01856834226714
H          -1.83217536442933   -0.93110224582106   -0.02643117456966
H          -1.35177094331503   -2.06045443051265    0.90726421092554
O           1.83773420336859   -1.28799392935001    0.71938999042656
H           1.63574582488997   -0.32783553962879    0.72411563394516
H           1.25592501037012   -1.64869772292766    1.40904925166582
O           0.82748501771551    2.94572168955390   -1.22235575851270
H           1.00524716259370    2.22788495397357   -0.56614564137885
H           1.55949547835497    3.56213460516542   -1.16072287215057
N           0.45566400424422   -1.79339279701963   -1.45730785460712
H           0.33264788380711   -0.87914077744079   -1.96685322960226
H           1.15393428471150   -1.65701421805386   -0.66327698177145
H          -0.47607652357220   -1.98767116919025   -0.97309075440311
H           0.72404975327093   -2.54011595332768   -2.08726221915969
