    26
        -50.47138209  Gyration_radius:  2.5030460121 Dipole_moment: 4.245
 S           0.25389350584784   -1.03197739383851   -1.10861856883680
O          -0.77997911090873   -1.40651803252786   -0.13667807698091
O          -0.29421211615401   -0.24190321894225   -2.19107175455134
O           1.37655492310166   -0.39017258661793   -0.44325965971902
O           0.81620022251700   -2.36718703041769   -1.70199756415558
H           0.01984027699895   -2.74011097480268   -2.12819859659722
O           1.86472638497764    2.15512028011511    0.24614244729379
H           1.71175684154919    1.28453552381347   -0.16904792865685
H           2.56394862126779    2.01539712494407    0.88800442582308
O           2.02747169849832   -0.73737499777585    2.08308479898695
H           1.89264045575387   -0.63076125788902    1.11261489115162
H           2.39917789132940   -1.61232490476470    2.20259724721773
O          -1.66184699629568    1.80211331749121   -1.20946047194157
H          -1.17951212155223    1.02575117753552   -1.56715371343732
H          -1.54494159652853    2.49864205844658   -1.85863849054609
O          -1.71255165962996   -2.53631225612724   -2.43149968865289
H          -1.87719362554137   -2.36176243169918   -1.49490504153873
H          -1.56599907170160   -1.66196306394361   -2.81767614054301
O          -0.62839681452927    2.38200018751581    1.19046926267446
H          -1.13130620386281    2.25933801243073    0.35514449235042
H           0.30359437538471    2.48611749863395    0.89653057933455
N          -0.58431607208102   -0.04438093809117    2.08796257720755
H          -0.64222007583535    1.00330439396350    1.79503769612417
H          -0.76268742715905   -0.61485626408206    1.21191362678764
H           0.38976969135817   -0.26634830559811    2.37398855929811
H          -1.25441199680082   -0.26836591777145    2.81471509190657
