    26
        -50.47214166  Gyration_radius:  2.41842275413 Dipole_moment: 3.324
 S          -1.73046796910213   -0.20874715883036    0.70284948930744
O          -1.09856141682252    1.07250368038353    0.98185379831535
O          -2.05180348312405   -0.35691844564506   -0.70621691750410
O          -0.97109180187238   -1.32061706551482    1.23730207889477
O          -3.10879096667568   -0.20703288886384    1.47423587994066
H          -3.59098986375815    0.47009171363678    1.01207222705419
O          -0.92270109155095    0.74181495673027   -2.93570676622179
H          -0.56494262577901   -0.04599844360018   -3.35175434000913
H          -1.49414944623698    0.41955095011920   -2.21782438780267
O           2.07407997706635   -0.64898127405337   -0.87453174403449
H           1.71573642922852    0.26118436700720   -1.01410910812108
H           1.37369628401327   -1.24478562179317   -1.21440449530235
O          -0.15195740509435   -2.08336204562349   -1.40333340433121
H          -0.22716339701982   -2.78765914170465   -0.75658816713874
H          -0.89026951341268   -1.47635347269587   -1.19533353147781
O           0.70654906609342    1.62388457334184   -0.95523457028016
H           0.01194814793283    1.48548363583577   -0.28538665866332
H           0.23724365712173    1.53535446001767   -1.80668020084825
O           1.20836015512373    1.93600805551610    2.04720320386345
H           1.55633255514013    2.37671707011686    1.26517701701091
H           0.26301118548215    1.79336252065924    1.85100184152841
N           1.55091694175624   -0.68159132596673    1.65740600339378
H           2.09081388956444   -1.25972677269979    2.29090960468022
H           1.91106793105813   -0.73494955938578    0.63469248328239
H           0.54497076865065   -0.99028936137468    1.61655823763918
H           1.55816198229217    0.33105660435383    1.94584241687341
