    26
        -50.47334124  Gyration_radius:  2.42272295392 Dipole_moment: 3.259
 S           0.57511414411455    0.91972743322285   -0.73758196907716
O          -0.16428887875959    0.55069611555427   -1.94599199316768
O          -0.33398439323562    1.46066044454964    0.27010693417711
O           1.35505066962259   -0.19064570370667   -0.22997505718096
O           1.58277047342375    2.05129008728804   -1.10921229784670
H           0.99448205824932    2.74474564478626   -1.47242424173269
O           0.90107520064674    1.35591841936061    2.68560574415781
H           0.40749575670607    1.47824837643540    1.85419350378977
H           1.74350953011469    1.79523548265292    2.56248806953704
O          -1.80745732353393   -0.66138461323314    1.05955058267121
H          -1.09000288994920   -1.03533586035379    1.62361614888616
H          -1.48277542355898    0.23380795837446    0.84708165423127
O           1.06914689589248   -2.86709288532429   -0.45032014551465
H           1.45465063933237   -1.97423143735083   -0.51685361210044
H           1.02879316877457   -3.04753322247907    0.49509184222742
O          -0.66391796533582    3.20078922880219   -1.84788578000827
H          -1.00457616663490    3.09178079788385   -0.95216203176844
H          -0.77797966145934    2.33448714781501   -2.26631992281880
O           0.55881443911547   -1.31180583182697    2.09548848934603
H           0.66667554438984   -0.60895878235484    2.75353777561727
H           0.95341452679884   -0.92034316977692    1.29245018530880
N          -1.21570179179998   -1.74629021858867   -1.22520643045596
H          -0.39309803875569   -2.37045105084223   -1.00943933131885
H          -1.90935406202041   -2.20648232664230   -1.80423077944605
H          -1.61594916343285   -1.39916914165687   -0.28558427012177
H          -0.83190730870897   -0.87766289258271   -1.68602305739660
