    26
        -50.46374902  Gyration_radius:  2.50880988697 Dipole_moment: 3.192
 S          -0.84998917376532   -0.68264142300040   -1.65688050218555
O          -0.84785447462296   -1.56137447576812   -0.49467728499628
O          -1.93393880354838    0.27234711622584   -1.65206518012416
O           0.45692186704082   -0.05984676515413   -1.82480794524140
O          -1.09736147027021   -1.60035576680399   -2.92587636161386
H          -1.76624108720119   -1.09747412286457   -3.37875841824396
O           2.53295857938672   -0.98845472613173   -0.53709797056839
H           3.24934256234839   -0.90804084529438   -1.16944887992307
H           1.71403725358355   -0.75202635990571   -1.03477742009209
O           2.28716706974995    0.71441688213771    1.45566128594469
H           2.99111861153226    0.60119270727165    2.09514629013481
H           2.45061705367252    0.05436816160726    0.73310527732962
O           1.00736871817434    2.31951571130880   -0.63572178759873
H           0.86006963169668    1.53963469627280   -1.20111832000772
H           1.57787783812746    2.02177194289549    0.08256049536090
O          -2.04684500163017   -2.02757765823493    1.99050680364786
H          -2.86149407755153   -2.53033933201925    2.01583168847675
H          -1.72219353190331   -2.07950381828373    1.07792482141938
O          -1.51067732604216    2.10466907996497    0.25165297899901
H          -0.67636537401917    2.48628331948465   -0.09646728382268
H          -1.85182418671865    1.55142244498131   -0.48027619594361
N          -0.38055042780198    0.12869429736037    1.50765126694228
H          -0.90651019923845    0.99875258716724    1.14769297629515
H          -0.42147496881512   -0.56614858261093    0.72356643809414
H           0.60788489649287    0.36431027805598    1.71024866113991
H          -0.86204397867278   -0.30359533865847    2.29642455656669
