    26
        -50.46935234  Gyration_radius:  2.49979334577 Dipole_moment: 2.894
 S          -0.38251673236776   -1.87113528053553   -0.67169230634802
O          -0.72431789996968   -1.05407356779952   -1.82734643971734
O           0.92121693406257   -1.48738233193380   -0.12594374472182
O          -1.39010283649043   -1.90909088878582    0.35498940083295
O          -0.21836247127478   -3.34870992294056   -1.21728555498255
H           0.38898927445976   -3.25805609499281   -1.94525810779275
O           2.43812245062959    0.75551216233546   -0.40949543196662
H           2.08039292653854   -0.14751595522463   -0.35554110586522
H           1.76101865319469    1.24591803809840   -0.90081549759484
O           2.37820275383589    1.34110674497337    2.16867714052205
H           2.49389310562685    1.25247939420248    1.18735954758421
H           3.17097903236311    0.97452464886394    2.56214524587414
O           0.09081245068988    1.42991624110844   -1.72624256590160
H          -0.18510138721367    0.48192476917782   -1.79087184208500
H          -0.04177783217046    1.80842825524206   -2.59666145307398
O          -3.07551654997242   -0.12823527952473   -0.64054919581049
H          -2.68940946158224   -0.21474778645899   -1.51849563999868
H          -2.67673130647317   -0.86924216362550   -0.14602224193485
O          -1.48533987249901    1.68134554571572    0.50272179061016
H          -2.22207153254862    1.12531438008281    0.15504244194923
H          -0.91455162798496    1.85099448301207   -0.26649721310093
N           0.05502310839933    0.06098742812186    1.86631597925569
H          -0.61332418829944    0.75198115392092    1.37899323738478
H          -0.42978435160497   -0.41800718316695    2.61768407329360
H           0.36564675105947   -0.63755773874665    1.14928026883925
H           0.90461060958826    0.58332093866082    2.19550921480388
