    26
        -50.46452268  Gyration_radius:  2.61809325418 Dipole_moment: 4.560
 S           0.02941044510003    0.67627928925961   -0.33477317063183
O           0.20786005878656   -0.34674032404127    0.71578332798231
O          -0.53108132722966    0.07780073481910   -1.53965628593063
O          -0.78266315065233    1.76730711867964    0.16755710849197
O           1.44095232419264    1.22301876595037   -0.66495359629649
H           1.72633237412348    0.72973916941578   -1.50911288861873
O           2.96566233729112   -2.28945560105826   -1.43182339457804
H           3.88641183502015   -2.50452746932932   -1.58834195703101
H           2.92556398192091   -1.87275676067951   -0.54038228933542
O          -1.85963775810023    1.96150432372945    2.54954846194211
H          -2.37108097753235    2.77150531163210    2.57617976324371
H          -1.34030233307895    1.99474865792969    1.71015170813204
O           2.81876260427078   -0.84513693522286    0.82177626104972
H           3.13111136660179    0.03771496179085    0.60597858587588
H           1.84674511489649   -0.75279254925526    0.89050514101003
O           1.85490735493590   -0.21511149226835   -2.70733894254811
H           0.89499434086201   -0.35532758778640   -2.68352384275437
H           2.26158111287995   -1.04197303068263   -2.35827771811533
O          -3.02154005627306    0.19218478913839   -0.77293101347501
H          -3.11687578054898    1.14803562434625   -0.74436021902258
H          -2.13861513986460    0.05576638784018   -1.19582457399234
N          -2.19349005854552   -0.51090182779869    1.63363928133343
H          -1.16100762329776   -0.57839304545751    1.35022127653692
H          -2.69801367507246   -0.33190109633881    0.71713429244766
H          -2.51809608939297   -1.34235542577523    2.11452791805471
H          -2.25789127133403    0.35176802118982    2.21829675625401
