    26
        -50.47029864  Gyration_radius:  2.40030409781 Dipole_moment: 4.651
 S          -0.50547251141193   -0.49267435621141   -1.00017515902195
O          -1.06835998049969   -0.03999800711822    0.28541998714406
O           0.62806219672800    0.35795088448708   -1.36836361743302
O          -0.15411019999337   -1.89198093391993   -0.93209170111649
O          -1.60751351663466   -0.31393942805214   -2.07165202677036
H          -1.56574431209095    0.65417584325023   -2.32027504678593
O          -1.64517971652487    2.52097618743088    0.25291656801229
H          -2.54214529265263    2.65925040552250    0.56033158886598
H          -1.47049936815255    1.55277074447214    0.32952007546292
O           1.12579972278528    1.82166311048597    0.93512587965973
H           0.40598558058014    2.45953939585554    0.93753697572876
H           1.09020674366330    1.40360753939090    0.06154036576173
O          -0.18559235572909   -3.16754137878729    1.40657806829707
H          -1.07448228471894   -3.48355320955306    1.57348557534746
H          -0.19751072827641   -2.80806682869586    0.49136233188139
O          -1.08777865112586    2.19184172311078   -2.37837054976812
H          -0.16805562175744    1.90762108679989   -2.27765700715482
H          -1.34317863676483    2.55206077933525   -1.50551477960707
O           2.48916166470951   -1.21296964158729   -0.32296520452829
H           1.99889814868856   -0.55383848066580   -0.85483013720562
H           2.15017782283817   -2.06162217808022   -0.62606650264649
N           0.95689401455098   -0.80698282833170    1.80437505919714
H           0.14849509183305   -0.33552765640742    1.31497928375905
H           1.71676132951936   -0.91707003223012    1.06878859628662
H           1.28228321563602   -0.23707686931622    2.57930710194034
H           0.62289765457861   -1.75861588103723    2.05669428461600
