    26
        -50.46608228  Gyration_radius:  2.44578193091 Dipole_moment: 1.110
 S           0.94222741969596   -1.55046912651572   -0.72712188073672
O          -0.40962437008602   -1.08825932136727   -1.02439832770767
O           1.85474579819340   -0.42620478799028   -0.56923239507197
O           0.98406234686323   -2.47697622835620    0.37889825934705
O           1.41697393596749   -2.34260025584384   -2.01130313088369
H           1.20584048891581   -1.74258917932586   -2.71966759259822
O           1.27369149838647    1.73809385897246   -1.95715687190884
H           1.47996531483771    0.91264144187340   -1.46459086036046
H           2.11876053645339    2.15359845379082   -2.13676075232496
O           1.18515458540953    0.88010841849014    1.69370535713615
H           0.70296706307510    1.64633693398470    1.28915439655376
H           1.62066849419730    0.43953048007650    0.93980018160102
O          -0.09604899674419    2.67834425752393    0.24039363084812
H          -0.93918453040882    2.24909013599188    0.01549928884927
H           0.44143047109861    2.56164792692203   -0.56447491024459
O          -2.45199069600920   -1.12604467706235    0.75128438951863
H          -2.79812052991057   -0.26251398028470    0.49699537799622
H          -1.83901687746613   -1.35834418049167    0.02778351876686
O          -1.98152968735552    1.09958248372291   -0.95510298649057
H          -1.34305794286019    0.36632944288750   -1.06110129335693
H          -2.06750466897602    1.49942012982819   -1.82195638573331
N          -0.27489058045442   -1.17400869807299    2.27131283553913
H           0.26056671508962   -0.24051586410737    2.16797230368551
H          -1.24423511729630   -1.09377599326999    1.86962035017436
H           0.24466985894014   -1.83999427477302    1.63985151674215
H          -0.28652051955951   -1.50242741660424    3.23059597068158
