    26
        -50.46866357  Gyration_radius:  2.48726439707 Dipole_moment: 4.325
 S          -0.89697588006583    0.76968538570150   -1.17508942658443
O           0.21468839403978    1.66271416520312   -1.42767513733160
O          -0.45238614305663   -0.63034009318249   -1.16959406347165
O          -1.61555474683520    1.08087252874550    0.05155276145868
O          -1.93356298285359    0.91650803432719   -2.33695213165794
H          -1.40024070673359    0.69454061961402   -3.12484768550485
O           2.05935089001130    1.15330102067523    0.45177219770925
H           1.47887035648336    1.37920401503655   -0.30200410405210
H           1.57883452442934    1.44185272500977    1.23512860626761
O           2.83122677511418   -1.36683588520536    0.83784477097267
H           2.70455485152129   -0.39702445800043    0.70238349221378
H           3.18224249519866   -1.70376816368027    0.01228450371373
O           0.21201464957040    0.16038581487900   -3.68944765846073
H           0.63322299494564    0.90609733925338   -3.24008289218906
H           0.20069078577902   -0.54632798410232   -3.02942107856295
O          -2.49947260293013   -1.11826188463476    1.37080215249815
H          -3.41239706010722   -1.30059052739561    1.14624186779847
H          -2.25927158386725   -0.31958888250303    0.86393777744369
O          -0.18078972993182    1.17143408726939    2.23493995203544
H          -0.76103825167686    1.35788878583312    2.97554728607103
H          -0.72726443165187    1.30033399796440    1.42315416258158
N           0.21393684781114   -1.35016489474827    1.25936268420413
H           0.10123258392607   -0.46635207172911    1.80166424906743
H          -0.09307439536233   -1.12897731776203    0.26537834681789
H           1.22955074436568   -1.60750328852579    1.22477565008366
H          -0.40838840811858   -2.05908307804124    1.63834373688670
