    26
        -50.46881772  Gyration_radius:  2.42434988889 Dipole_moment: 4.439
 S          -0.63370728144575   -0.36331049716189   -1.76919470482528
O          -0.69927730837733   -1.80045754550932   -1.92403592522495
O          -1.34432315464594    0.12771748537032   -0.61049631874217
O           0.74469837247676    0.12359313488402   -1.82885488848801
O          -1.36836488595774    0.26468318447986   -3.02781964866057
H          -1.02740818025776   -0.24779079540301   -3.75350562288726
O           2.22106229191896   -0.31242173354645    0.24577069704354
H           1.66015538225124   -0.14955092556152   -0.55882481854673
H           3.06197845251039   -0.63092990726659   -0.08576486123607
O           1.19003676863492    2.25535455946987    1.13411451431501
H           1.76056546482562    1.51728700684495    0.88516324819794
H           0.80744499372521    2.58457056441124    0.29454416213875
O          -0.08174779675944    2.58287468429839   -1.24153420593482
H           0.31051599955026    1.76118597018782   -1.58593322221948
H          -1.00479302165232    2.36296610037030   -1.09095767371834
O          -1.42371230438124   -2.57364505779432    0.45194674022750
H          -2.21209302891843   -2.03284175901402    0.54908746860779
H          -1.13014297288013   -2.40913241598013   -0.47707306284827
O          -0.94845556778575    0.93852500686113    1.93469673451318
H          -0.20075230898123    1.57342854655108    1.78819363109647
H          -1.29487849712675    0.76516124098389    1.04032844074939
N           0.34249152808497   -1.29115136334935    1.94965664227622
H          -0.20582925161058   -0.35830903560156    2.09784738155785
H          -0.30762600471592   -1.91447640059870    1.38890459952612
H           1.16893271003062   -1.05092158023349    1.36851146782038
H           0.61522961150110   -1.72240846769212    2.82522920526048
