    26
        -50.46644259  Gyration_radius:  2.48604917985 Dipole_moment: 0.919
 S          -0.24213010002059   -0.87791807809189   -1.61941424586639
O          -0.97100175621818   -2.11285201581168   -1.43770507607148
O          -1.07152029964835    0.30958931985723   -1.51486004554993
O           0.93004107462972   -0.78274555312883   -0.75277059569915
O           0.31996035059415   -0.91762890925801   -3.10729689289924
H           0.00634661481134   -1.74968887834179   -3.44730226457630
O           2.15210711492945    0.40211543117150    1.72455307726093
H           2.23100068499526   -0.02216287663594    0.86450130597744
H           1.79998368355409    1.28596124509996    1.54075174665857
O           0.87358601673283    2.70353002826015    0.72240176775621
H           1.00430029620758    2.43106853397958   -0.22243075809068
H           1.04665349775841    3.64481903293319    0.75972899054508
O           1.10325241142840    1.79267192552155   -1.75339943734019
H           1.67450946726303    1.01952332684223   -1.70700668753256
H           0.20778931603053    1.41036019622043   -1.82654503897358
O          -1.79894224609953   -2.94002280253600    0.95162930863736
H          -2.75679436470559   -2.94003812411334    0.91179504901712
H          -1.49325067912007   -2.75828427440506    0.03545000885077
O          -1.49065069213235    1.33690416042223    0.94468451852332
H          -1.54239410078027    1.05770097914620    0.01022729300674
H          -0.74767311673611    1.96899795467303    0.97627944570610
N          -0.25291934729989   -0.86885463844277    1.62646690970124
H          -0.83951738670965    0.01928560183045    1.53352189642732
H          -0.85697831112259   -1.71424000864023    1.68234604930489
H           0.28473226028099   -0.92626044767591    0.72475081563328
H           0.42950962140896   -0.77183112888019    2.37964285955405
