    26
        -50.46201662  Gyration_radius:  2.53021444102 Dipole_moment: 5.559
 S           1.24332180202831   -1.16221683219340   -1.27712142892136
O           0.29697146977191   -1.02140576717438   -2.35866266772563
O           1.81197497763454    0.09660132073176   -0.81872201342328
O           0.70486536145125   -1.92175206783213   -0.15269213870212
O           2.44355304224262   -2.01126216263778   -1.87119218088947
H           2.04042581130694   -2.31246469376213   -2.67774027485187
O           2.43809486747239    0.41634322124103    1.68729230729948
H           2.24054217024755    0.17489995767952    0.74831959407512
H           3.19726778599571    1.00094005686232    1.64227202553353
O           0.07757999191076    1.39360161083846    2.26293675830683
H           0.07167403832442    1.79877659291097    3.13072454428646
H           1.00064690019170    1.05497291289383    2.10649987768551
O           0.11621048890033    2.18509465814106   -0.50185957678557
H           0.80741915792114    1.53006795675535   -0.70742876302953
H          -0.03263808783790    2.12238047898031    0.44918850997011
O          -3.10086904968464   -0.43890927780263   -0.36633530353269
H          -2.61119594556493    0.13554632971548   -1.03773763446113
H          -3.38374903723430   -1.21041349897241   -0.85982309214944
O          -1.63236392281365    0.83110679023302   -2.05195047855450
H          -0.97266371035617    0.15681095988777   -2.30611017258967
H          -1.11665736470778    1.51036803432031   -1.57305781040476
N          -1.13637563190716   -0.86522619905160    1.32503809326439
H          -1.97496056252045   -0.68826195367089    0.68683776201045
H          -1.38519657958547   -1.50181149939325    2.07472651071204
H          -0.36039608168756   -1.30403099771861    0.72938283610085
H          -0.78348192156161    0.03024407903922    1.71721469680160
