    26
        -50.47268904  Gyration_radius:  2.39421716512 Dipole_moment: 3.509
 S           0.27937846905857    0.80637610145691   -1.23797346925554
O           1.01690566131736   -0.41063776561156   -0.96993083071018
O          -0.83308117148034    0.62373104532193   -2.13847109417906
O          -0.07661057628013    1.49886173851051   -0.00244129988416
O           1.28497641090337    1.79261573779213   -1.99008319808067
H           0.94631897293424    1.82755322911078   -2.87931355845399
O          -2.77210971697623    0.60936598699050   -0.28445451914828
H          -2.18458720872487    0.59612558229601   -1.06271589630653
H          -2.53005380516772    1.40694390592790    0.19105933945882
O          -0.90378239986542   -2.20524675240614   -1.46294688013984
H          -0.09604373705628   -1.67914768453507   -1.32401480854563
H          -1.41620537554404   -1.70387421537805   -2.10306041428249
O           2.34107845315734   -0.96067209039267    1.32354007518248
H           2.06728775014065   -1.10293514521235    0.40272323100562
H           2.68219179224324   -0.04665945087612    1.31405144753197
O          -2.05215412919275   -1.71518907583465    0.90617133196863
H          -1.66615470806692   -2.13195752579805    0.10454624546981
H          -2.55318023685034   -0.95215612747661    0.55402414022687
O           2.52970562643480    1.68260492696833    0.66922724787001
H           1.58670348864025    1.74835968075484    0.44413867768975
H           2.99865740386590    1.88631382060828   -0.14201559162100
N          -0.13249102531154   -0.31657460130937    1.96801916107928
H          -0.89263617733313   -1.00486282710930    1.62777278999454
H          -0.16501579248390    0.49219890960414    1.30803720280598
H          -0.30499885269231   -0.01845879070055    2.92205526826418
H           0.84590088430204   -0.72267860271590    1.86205540210813
