    26
        -50.47304694  Gyration_radius:  2.48614355814 Dipole_moment: 2.160
 S          -0.66412926858607   -1.14195709143492   -1.66145693010705
O          -1.74657861281130   -1.25178761191616   -0.69022425370049
O          -0.86360619811981   -0.04044705605146   -2.58084028901068
O           0.64194947486857   -1.14725165542045   -1.03050633481465
O          -0.72051233616029   -2.46387168300378   -2.53548580130973
H          -1.48167937976539   -2.31145597041874   -3.08547591623593
O           1.98053876623083    1.15566988828103   -0.69515732649484
H           1.61705036923099    0.27206487043759   -0.89720531182360
H           1.27123034333381    1.77121519858200   -0.93478695978261
O           2.36608203026156    0.96748304201094    1.87779192173126
H           3.12463542062979    0.38733322298774    1.95917773743542
H           2.26649796883638    1.13750880185003    0.89889135659745
O          -0.45154583297033    2.25039515715190   -1.43662312488880
H          -0.74328591678238    2.95749193827721   -2.01425492472321
H          -0.59991608956782    1.40636481829319   -1.93618277193127
O          -0.17950274394863   -2.36201996424464    1.13640662879412
H          -1.03950806974036   -2.23162586668622    0.70004086889445
H           0.43177716025032   -2.13046864554070    0.41068702057730
O          -1.73086912837109    1.04103397480509    0.64837014756609
H          -1.30968785112744    1.64765989209049    0.01337747976310
H          -1.89575006912281    0.21631135972162    0.14358448610248
N          -0.05156478943019   -0.02287055085506    2.36908463275638
H          -0.73076708439201    0.51526146052385    1.74580995541308
H          -0.06454281707898   -1.02282614472072    2.00800592575238
H           0.91791718460961    0.37867369620764    2.24836207441721
H          -0.34423251651454    0.02211492041953    3.33860971524462
