    26
        -50.47262839  Gyration_radius:  2.42506544235 Dipole_moment: 2.652
 S          -1.25922034478648    0.97454893221500    0.87515040802900
O          -0.06660005052308    1.79695990050387    0.95036135182394
O          -1.58922120552077    0.62837664073130   -0.50132353513164
O          -1.19626778673945   -0.19232984329569    1.73448654233521
O          -2.44818221302569    1.85880548204496    1.41883366939896
H          -2.32359929978996    2.66312348269267    0.92762014762895
O           1.39669306191749   -0.25769779656162    2.14679891076299
H           1.56430118135463    0.68943083223612    2.18111454139543
H           0.41650185808064   -0.31533820233589    2.11908894663864
O          -0.43738150960818   -1.66709536657499   -1.21161685495105
H          -0.95243991143060   -0.85177663147254   -1.03571307017143
H          -0.76722438888756   -2.29968734228434   -0.54667331316597
O          -0.42587403008900    1.45432018227129   -2.75732399727488
H          -0.50088859860968    0.69292868209166   -3.33578506153275
H          -0.95607734903664    1.23607505983407   -1.96489456307352
O          -1.31486902328439   -2.79115573352281    1.07943197189505
H          -1.41966558850630   -1.86506192252570    1.37212284809090
H          -0.93109257269391   -3.26140660168706    1.82101548215652
O           1.66219990814005    1.71247440949492   -1.08073549507897
H           1.04869336729448    1.75063014704304   -1.84305015307653
H           1.09337421281278    1.90858863318710   -0.30745988720710
N           1.90782769526824   -0.79650477148416   -0.41572282425025
H           1.93488983924635    0.21330015137617   -0.78251648115148
H           1.01388546593684   -1.24432864164876   -0.79263049236231
H           2.73336252032337   -1.32025764879334   -0.68202434457091
H           1.81687476215640   -0.71692205353389    0.63144522284296
