    26
        -50.46862858  Gyration_radius:  2.47484911222 Dipole_moment: 4.026
 S           0.34096002333227   -1.69840365785052    1.42964473878712
O           1.10234092355179   -0.98640871301439    2.43498984464866
O          -0.96914689491452   -1.06739924779052    1.19501825700852
O           1.03051799218199   -1.93443265441890    0.19078386366211
O           0.01600522750946   -3.11584609132769    2.06817686062662
H          -0.02884057236188   -2.89502110131597    2.99261525698332
O          -0.88171699587594    1.60595142033188    1.41286193135681
H           0.07841504851959    1.72864313224235    1.46696297850017
H          -1.00674683450400    0.63880328319646    1.48522545309100
O           0.82832486284881   -1.13667841675704   -2.34332520943761
H           1.16553074412720   -0.21715862368234   -2.23111285321074
H           1.12053047758417   -1.60113674339016   -1.53676520565203
O          -1.46131103363281    2.03385500209390   -1.08266637934324
H          -1.27313508782625    1.94375039434673   -0.10136010972277
H          -2.03383904805471    2.79475032094379   -1.18074324701913
O           1.82449236598954    1.14728681129068    1.14770426104797
H           1.60916433119090    0.31016100393633    1.62780304004492
H           2.71650961334490    1.38160521497785    1.40980092104917
O           1.27410214587698    1.37162326633233   -1.56224607012599
H           1.54572756456607    1.27399381213221   -0.63348253032818
H           0.38990589894356    1.76170845207754   -1.53722100421056
N          -1.50779815393545   -0.67383812901831   -1.34435709593341
H          -0.58572719348901   -0.92065615085541   -1.87485106789168
H          -1.33683455193348   -0.91376756910866   -0.32596025298228
H          -1.65262187132758    0.35229801633957   -1.40047403738192
H          -2.30480897171124   -1.18368302171175   -1.70702233356667
