    26
        -50.46920132  Gyration_radius:  2.56978428945 Dipole_moment: 2.030
 S          -0.64926092639780   -0.23353976674993   -1.77256285132592
O           0.41667973086328   -1.02001564111350   -1.16054635439701
O          -1.90814204696890   -0.42326395423222   -1.05953383114444
O          -0.29684419803622    1.15326262185325   -1.94420458813158
O          -0.86057881522167   -0.83192044738784   -3.22383692334648
H          -1.07952793508402   -1.74910807876559   -3.08377316235335
O           2.34624110462420    0.87217359302369   -1.75591320787059
H           1.43757561165752    1.17992188694106   -1.93921240510675
H           2.24521932288143   -0.08346502619722   -1.68301402336364
O          -0.22874945955172   -1.61345487610997    2.86734085501738
H           0.29291339225688   -2.41568622816734    2.91900556563385
H          -0.97757392698898   -1.81513274469973    2.26074321074734
O          -1.58781473882251    1.77625555735048    0.40307529669802
H          -1.95377540230593    1.00625937780747   -0.07330528869822
H          -1.23585183891508    2.32987941033801   -0.30191037027218
O          -2.14874199741872   -2.02979475456929    1.04367652002717
H          -3.03867155364248   -1.82483662293092    1.33696372167145
H          -2.00905259143999   -1.49322743412133    0.23426299343127
O           2.82874537030723    1.67498625569502    0.73316756355594
H           2.79138872217974    1.40783681707469   -0.21861431664292
H           2.91736504290920    2.62876971414485    0.73941796603425
N           0.54948999438424    0.30710696814978    1.15563391793770
H           1.44417317979071    0.84083828110328    1.21394177685100
H          -0.25840902447815    0.96430863554030    1.04585207275072
H           0.57674764849191   -0.28446883112493    0.29194006571576
H           0.38645533492663   -0.32368474284404    1.97140576658087
