    26
        -50.46677957  Gyration_radius:  2.49307041589 Dipole_moment: 2.348
 S          -1.72148041540596    0.10940375119315   -1.34416228556154
O          -2.09121953222413    0.54028033274404   -0.00372866158264
O          -1.21101424948064    1.17672273048448   -2.17388301980401
O          -0.83244780034321   -1.04523048542063   -1.28751993376002
O          -3.06004094642229   -0.37705092202742   -2.04385281331533
H          -2.95496693911352   -0.01946709717716   -2.91934321139200
O           1.93683188411052   -2.24851590591721    1.02296295534510
H           2.25864506680252   -3.09219345090821    0.70242935221086
H           0.97551006901880   -2.33048251195752    1.10783750145100
O           1.14540114945840    2.11004748733999   -1.33720930251662
H           1.62736836890506    1.25534940689313   -1.33199284509725
H           0.33248300544063    1.91535407374043   -1.84654171424981
O           0.88368994097971    0.02855377620074    2.42782920348661
H           0.20773008732249   -0.61358875868532    2.12336109859450
H           1.72416274649832   -0.37250952541706    2.18558154782283
O          -0.83567096638589   -1.71264092887757    1.23405724984723
H          -0.84461663457045   -1.49600106803530    0.26935036481111
H          -1.71596345979504   -1.47793207157906    1.53537277427754
O           1.79951615858222   -0.46837481998699   -1.14667975592848
H           2.04448514415385   -1.00463742741368   -0.37725392541451
H           0.88282512220242   -0.72619211415070   -1.35271965861008
N          -0.10852404330089    1.99347271418686    0.93047690188874
H           0.49341995355123    2.15144202964643    0.04574849177026
H          -0.98311775297945    1.50140043440965    0.60267364813082
H           0.38335009274132    1.33455484405128    1.58791418519792
H          -0.33635604959919    2.86823548663290    1.38929185242772
