    26
        -50.47771704  Gyration_radius:  2.36997444625 Dipole_moment: 4.704
 S          -0.12408983539854   -1.00004246852144   -1.07490792757679
O          -0.51305292495093   -2.18779889983055   -0.34852718010824
O          -1.13113105886809    0.05911287156242   -0.97732276866013
O           1.17892840662463   -0.50493616679735   -0.61101311015133
O           0.03473737490451   -1.37021258778431   -2.57413740817384
H           0.14416661093783   -0.49192528961022   -3.00644048295439
O           1.85103637918290    1.96036669834829   -1.06639833219070
H           2.80381204294515    2.05126312340876   -1.10954318275662
H           1.67108932392563    1.00430186296221   -0.88723147873092
O           1.35096554947963   -1.72696796046129    1.69380047057128
H           0.85111415733027   -2.51367578403881    1.45028131161553
H           1.47913913102397   -1.27039957405172    0.83134815788815
O           0.07426050116860    1.20483848898080   -3.08493773514734
H           0.77965557732346    1.66565574654409   -2.60126002346966
H          -0.65535428685744    1.13024713701472   -2.45132380764257
O          -2.40320393775025   -1.18417745828266    1.16946870190730
H          -2.71320021846858   -0.52285851825837    0.54166041466675
H          -1.78895271792896   -1.73464504793334    0.63099700234416
O          -0.32199455416764    1.92092640915405    0.71343326196358
H           0.49860682779970    2.22227217034518    0.29778591821737
H          -0.71574164071066    1.30922341826854    0.05202366765057
N          -0.46683735027363    0.00610172963112    2.51818289715859
H          -0.31262598835255    0.87233352683405    1.92431249923437
H          -1.33983997412278   -0.46056451829819    2.12910750735746
H           0.33113627745742   -0.67188434992067    2.33914592354604
H          -0.56262366227630    0.23344542074726    3.50149570345107
