    26
        -50.47027081  Gyration_radius:  2.49084378669 Dipole_moment: 3.365
 S           0.28036801019340   -1.89557399705126   -0.72899536120488
O           1.47884041477702   -1.07634583990947   -0.82865748841984
O           0.00757317927323   -2.27403831183786    0.65209657666976
O          -0.87076855320948   -1.31892657302017   -1.38986457693119
O           0.60138052184094   -3.24062865413560   -1.50115653871988
H           1.34680955094965   -3.57898303413311   -1.01622231957396
O          -2.09974842597946    0.76295581416847   -0.25068609204608
H          -1.49932917509955    1.47840439240105   -0.52865649487958
H          -1.82209665665519   -0.01326294034316   -0.77750302821854
O           1.60876761992179    1.20389287973404    0.60351695987271
H           1.66391042251332    0.34338580375674    0.14609940106009
H           1.05156457935329    1.76024312472547    0.03509421429206
O          -0.10473160494238    2.35201535835954   -1.24908609023347
H           0.16378225551894    1.67711529777639   -1.93109577067689
H          -0.08687480288994    3.20383173071265   -1.68635093178199
O           0.68333233318325    0.96034566543141    3.03450124848464
H           1.08253454706274    1.15592026267760    2.14365510039787
H           1.35700221153013    0.48104665300601    3.51915064980232
O           0.57689317942990    0.38172288083013   -2.85513339341829
H          -0.19648835566838   -0.19308620836921   -2.74836170905237
H           1.22775264356998   -0.04693312497003   -2.27117961289388
N          -1.30587164043025   -0.42499824601909    1.94945235458545
H          -0.59202663652494    0.13702100645141    2.48643080454147
H          -1.70731382859896    0.16309189193571    1.15470283162351
H          -0.80174419027341   -1.23380494667516    1.48172437313594
H          -2.04351762897761   -0.76441089559854    2.55652488362077
