    26
        -50.45882044  Gyration_radius:  2.54920990424 Dipole_moment: 5.480
 S          -0.20588978771101   -0.86453981430837   -0.58112047244658
O          -0.67346116926293    0.33779383922995    0.30680474145301
O           1.25303824936250   -0.91797793856025   -0.46867624920920
O          -0.84793843908325   -2.06360000151602   -0.10928850400016
O          -0.61101674066903   -0.47577828880579   -1.93355543561876
O          -2.44296875718898   -2.16453399181155    2.00914724758453
H          -3.34667873794091   -2.02788769033208    1.72283470503463
H          -1.90592167086052   -2.23691305659126    1.19168694620358
O           2.63677308696003    0.95623755160199   -1.56110747932784
H           2.17378067028395    0.23203802507989   -1.05602047009486
H           3.32415522110307    0.52163886420310   -2.06926922021341
O           1.24841454908908   -2.31204006584702    1.79115786547846
H           1.41383096088078   -1.84048318087463    0.95204999835759
H           0.63282103723031   -3.01383015081920    1.56094845313709
O           0.42781596663916    1.64253453395170   -2.61365085199540
H           0.02843974696529    2.30568166376076   -1.88842000028021
H           1.38576008677346    1.46440003746729   -2.31127613366600
H          -0.06476868763158    0.70937960483697   -2.39681450096020
O          -0.45300508162321   -0.47599870622163    2.67060543305982
H          -0.57143160680986    0.04893537918189    1.29643121199878
H          -1.25711125466510   -1.03002840404510    2.72023139126515
H           0.28644377791545   -1.12143249792453    2.56255265321318
N          -0.51140381411547    3.01218465766089   -0.68429775616500
H          -0.70781380786613    2.18833107773938   -0.11449610962908
H          -1.36846133800377    3.53541885276044   -0.80536065177036
H           0.15659753023496    3.59046968020414   -0.19109682139679
