    26
        -50.47280410  Gyration_radius:  2.48479538775 Dipole_moment: 4.477
 S          -1.17361518074947    0.77793692042767    0.55690425814860
O          -1.20749422793964    0.51346901236599    1.98488003404838
O          -0.11662262553460    1.71460303981023    0.19884102495136
O          -1.08528155661084   -0.44716872703696   -0.22725704658237
O          -2.53741839029943    1.43769148897341    0.14650931276579
H          -2.53558120428384    2.24134143104841    0.70161318694454
O          -1.61944963788064    3.20130645690827    1.88206656267258
H          -1.54727079589103    2.45540021882171    2.49202400087282
H          -0.83141609597231    3.12989687827799    1.32373071402483
O          -0.01906045219308   -2.65349641157749   -1.32388936559647
H          -0.60836128214366   -2.06196398876585   -0.82154924473528
H          -0.04133351562386   -2.30164397455022   -2.22053631811731
O           1.82811969630531    0.78197261624003   -1.29808670630042
H           1.20812367580452    1.25963052764982   -0.70003089404595
H           1.26224798131396    0.52541469170430   -2.04975546770675
O          -0.33621446961912   -0.06772487416884   -2.72612247929623
H          -0.88383925534300    0.58626727554591   -3.16200891933335
H          -0.69279568066757   -0.15311109454310   -1.81153351194082
O           0.75332102045327   -1.16524500045501    2.32669620548688
H           0.29458572893831   -1.94889474733879    2.63711054766457
H           0.04950835730907   -0.47631807796723    2.23627752715086
N           1.99542629437310   -1.48592176659461   -0.02453272462625
H           2.91585284513296   -1.90486662519174    0.04683737159553
H           1.57321900660376   -1.33656814483489    0.92841522385937
H           2.03143233489007   -0.53206396998955   -0.52906590404361
H           1.32391740962871   -2.08994315475999   -0.56753735786409
