    26
        -50.47391920  Gyration_radius:  2.44017705979 Dipole_moment: 2.124
 S           1.78969060888722   -0.02823263889368   -0.72577364310434
O           1.08039343129236   -1.29465718264879   -0.61161751575683
O           1.62140470212092    0.59991721704407   -2.01605772123203
O           1.48179716483010    0.83987923538192    0.40130481941001
O           3.33325452898418   -0.35947236858609   -0.61147294556590
H           3.56709226241036   -0.37660056575029   -1.53221483269579
O          -0.74123713685022    2.41358500881743    0.01833930322711
H           0.13772217031940    2.03237246276436    0.17725875699760
H          -0.94157691412489    2.20346646882594   -0.90751659075208
O           0.21047173037106   -2.77588067330197    1.40586628923108
H          -0.63021797522934   -3.09660282413764    1.06973419819712
H           0.66584836962698   -2.38495991062638    0.63071192014315
O          -1.57782854038093   -0.89774221761208   -0.86871639249279
H          -1.62162650586036   -0.21973777562714   -1.55808590014853
H          -0.63094633954026   -1.12129041444378   -0.80911672482317
O          -2.16954003858258    0.56542838274418    1.29199289153116
H          -1.81955943616724    1.40577959695883    0.91223981111633
H          -2.16796993217047   -0.05282125963850    0.52620403457198
O          -0.87201035323011    1.24874721579686   -2.49831314112117
H          -0.94522031095105    1.62063611920410   -3.37842633200702
H           0.07659657732204    1.00755965594439   -2.37671291831677
N           0.04048867194251   -0.26878239903346    2.32712043369326
H          -0.94880754438903    0.08224393092105    2.02582475849942
H           0.71133201451258    0.18157189977152    1.65502821935864
H           0.26102771835358   -0.02022109589234    3.28441367871894
H           0.08942107663156   -1.30418587796745    2.16798555345422
