    26
        -50.46814398  Gyration_radius:  2.48702609908 Dipole_moment: 4.361
 S          -0.89701533022323   -1.00132728654985    0.35881264335687
O          -1.20321505146217   -1.59516904350876    1.63503639014081
O           0.54894898232448   -1.09127043927475    0.05009399550452
O          -1.64560270389344   -1.77618413316171   -0.73487006266424
O          -1.30439845705543    0.40849493735209    0.29995583382412
O           1.71324999794290   -1.76399918931926   -2.24075120370319
H           1.37774302450709   -1.52515885599549   -1.35168742239257
H           1.78819442312974   -2.71958325520893   -2.24969005009496
O          -0.93919950698290    1.64727091382448   -1.97053497744776
H          -1.77842298822907    2.01783251987258   -2.24898516189092
H          -1.12049642685843    1.16517196776205   -1.12688626178724
O           0.18855523844000    2.58296621392269    0.67346794369294
H          -0.51198820595361    1.89647720411966    0.66062803384491
H           0.31129527948699    2.81468311772972   -0.25261146858013
O          -0.17593186427116   -0.16847127760918    3.54380103775824
H          -0.59156138652734   -0.80983086391829    2.91019717484845
H           1.00600382962875    0.35707292975705    2.58314129886145
H          -0.87346702190880    0.44778789905990    3.77587443495041
O          -0.73029124954118   -0.87346646840457   -2.93857549291869
H          -1.32343534443053   -1.43883207731816   -1.63858691838129
H          -0.70586722919494    0.09262605389809   -2.79106137307415
H           0.20206349259163   -1.17332039545231   -2.90938567446012
N           1.57376329647453    0.58424884034724    1.71907034139846
H           1.27239731387185   -0.14951118091544    0.99824494513381
H           2.57147851286126    0.55896907074459    1.89751634097587
H           1.24719935527509    1.51252279824393    1.34778565310470
