    26
        -50.46129240  Gyration_radius:  2.55002614847 Dipole_moment: 2.133
 S           0.02941947006268   -0.56734164711677    2.07773858832489
O           1.23647780040076   -1.16118178404894    1.52088992818398
O           0.17978235879009    0.85512682318613    2.30474670031644
O          -1.16018181039573   -0.88328964603957    1.29943695874416
O          -0.19708422700608   -1.25762496869300    3.48601042945554
H           0.63353761853581   -1.16311261487336    3.94370181234311
O          -1.35257157320319    2.64841658247999    1.01140629281608
H          -0.80663012159716    2.03394934351011    1.54296889756591
H          -1.75762684357849    3.25039806019333    1.63602340740680
O           1.77509909368089    0.86435089890268   -0.04791471339427
H           1.72231142178304    0.05754766756630    0.51186146670355
H           1.81607677719541    1.59491498526931    0.57486714666897
O          -0.58147741934115   -1.21819228622336   -2.63599877338982
H          -0.33898180723640   -1.79724668743332   -1.87200524602236
H          -1.03790037599994   -1.77821353006998   -3.26415252042639
O          -0.06131125767789   -2.60318950103817   -0.42548945031977
H           0.79326163212622   -2.43392836985329   -0.00925178864692
H          -0.68837288634533   -2.19264112029182    0.19573827901211
O           1.20537855708526    1.00320011730018   -2.90987002269347
H           1.80289230042529    0.92448577356379   -2.16020874675482
H           0.79739634749126    0.13725745732129   -3.02913791139063
N          -0.82408958800133    0.74518405223250   -0.77284811942255
H          -1.30285780022840    1.64137378259527   -0.64462365757864
H          -1.11382895618144    0.10562997699162    0.00711772251491
H          -0.97814393764516    0.28894755631701   -1.68623087316898
H           0.20942521685750    0.90517907824703   -0.65477580684871
