    26
        -50.46945173  Gyration_radius:  2.47827739432 Dipole_moment: 2.398
 S          -0.91717572956142    1.35104499508298    1.28324759450512
O           0.18160835863774    2.14270313783131    0.73888937239051
O          -2.18923374090938    2.00920047925738    1.24241012498275
O          -0.91861469102975    0.00136834374554    0.73309602765943
O          -0.55419897827960    1.12776529585092    2.83376622066273
H          -0.95031070951182    1.88037265575684    3.26207989778296
O           1.31688989689481   -0.95163107360222    1.63058679662621
H           1.41719375697804   -0.64880610656494    2.53450698572422
H           0.44094523993866   -0.59944055745961    1.33503188224481
O          -1.06064236239845   -1.95404181811557   -1.11894312880831
H          -0.33787304402506   -2.52572100787606   -0.78707448534794
H          -1.27417464075371   -1.36465770642653   -0.37570712133833
O          -1.36359934990775    2.18357592897842   -1.41174758884885
H          -0.70732797603681    2.41763894016650   -0.72946852606279
H          -2.17978469306386    2.09354695968456   -0.90772399833830
O           1.02447415603621   -3.20071517779221    0.09170683912044
H           0.84131310212552   -3.94759261261783    0.66342696215524
H           1.25506518542555   -2.45470824412181    0.67384618343972
O           1.98628149557530    0.67093330352196   -0.52496222519787
H           1.43917073125508    1.34195186014955   -0.06035170351155
H           2.07710093623111   -0.04411847412816    0.12335621296530
N           0.09984402827975    0.08916675841021   -2.27884688949279
H           0.95091694907533    0.26570013627467   -1.66134045777857
H           0.35221469336377    0.04694320518936   -3.25960867517824
H          -0.36981431979838   -0.81075644891735   -1.94096195733342
H          -0.56026829447747    0.88027722762420   -2.08921433292537
