    26
        -50.46734109  Gyration_radius:  2.44432272994 Dipole_moment: 1.379
 S           0.68656121741474   -0.77371456864388   -1.56766946722174
O           1.36191372891120    0.41922683400034   -2.01135316436630
O           1.04347457761805   -1.14410118578198   -0.19546568394641
O          -0.75944729866218   -0.73462775317436   -1.71446984457708
O           1.21729886971233   -1.94480272166516   -2.49174122231785
H           1.79594658999398   -1.48401508959367   -3.09042842293717
O           2.03644966029968    1.19807719523128    0.64308119324411
H           1.76394186053368    0.31898198671222    0.31636994322386
H           2.35901642239232    1.65045483365674   -0.13985381595905
O           1.44512107826985   -1.02771995551058    2.68776063533815
H           1.62043137547961   -1.45021830104396    1.84055039287434
H           1.85664734660641   -0.16096806704996    2.62788699905582
O          -0.91944419765046    1.90730631052355   -1.46825666965786
H          -1.03304581079872    0.95108976923766   -1.62038810877138
H          -0.06325496169017    2.09358894773423   -1.86643811699831
O          -2.94277087613526   -1.24918612787016   -0.24405804547421
H          -3.60957398254423   -0.63855984069825   -0.56407689738758
H          -2.20964832226535   -1.20723118853617   -0.89003118244666
O          -0.50951109046832    1.99029100340552    1.18035364400081
H           0.46376270712771    1.90260285964901    1.14210665643491
H          -0.78551677500703    2.13027484669155    0.24769758992903
N          -0.98868686499585   -0.56128621936328    1.45866917693151
H          -1.90335017496257   -0.86558823550521    1.06756844420687
H          -0.24024659896619   -0.89974834627156    0.80918687806862
H          -0.90513235572360    0.51084455043441    1.45755567764802
H          -0.78093612448897   -0.93097154657111    2.38544342111539
