    26
        -50.47080918  Gyration_radius:  2.42833994234 Dipole_moment: 4.790
 S          -1.57508529707030   -0.70523433594502    0.63324198247900
O          -1.52253970610061   -1.10769608021080   -0.76655727686379
O          -0.56209760833021   -1.40873071432344    1.41464497398072
O          -1.54427176079613    0.72587643070763    0.80744022102261
O          -2.96711088903993   -1.19952356360507    1.19141951291072
H          -2.87154915347035   -2.14379468126455    1.13430204716895
O          -0.95795277669509    0.73088336625696   -2.62781818795021
H          -1.73826523439324    1.12643340210956   -3.01830023997166
H          -1.27735380882369    0.11203470288079   -1.93793261748268
O           0.76326075577448   -1.50982951346094   -2.15722712503726
H           0.65718035860773   -0.75516029001929   -2.74732846891948
H          -0.10893688398431   -1.60185754307833   -1.72877396416370
O           2.12291484345976    1.44797963391870    0.87429115829270
H           1.53026434212957    1.92042275891620    0.24385143590870
H           1.61391754141639    1.43038001732718    1.71191443705095
O           0.27864384438884    0.90037714591664    2.77175874341901
H           0.26386475805101   -0.03765114069556    2.98062686280709
H          -0.46681264193640    1.01763341558966    2.15558358468449
O           0.13693990698831    2.31607897569431   -0.65857621290619
H          -0.05084238349313    1.90730216202327   -1.51852884815220
H          -0.54796693138181    1.95996024775768   -0.06975339981670
N           1.78658473604624   -1.03825985095967    0.25978506782375
H           1.57917304007854   -1.19152563107518   -0.75866597566244
H           0.89656876219797   -1.25750198466005    0.77764223630773
H           2.53791885837873   -1.64622170482447    0.56734743300636
H           2.02355330796988    0.00762475501845    0.46561260007198
