    26
        -50.47220438  Gyration_radius:  2.41993449186 Dipole_moment: 2.798
 S           0.37828131691520   -1.01754408180792   -1.33431929710434
O          -0.36304988562498   -2.24657908296509   -1.19634932240303
O          -0.46133214305868    0.16141903083589   -1.43476847442918
O           1.40223562381137   -0.87354966704468   -0.30376361811849
O           1.15203254794154   -1.10524924796996   -2.71798985422584
H           1.30009062806007   -2.04157153881154   -2.79095683237036
O           1.69150639994264    1.75480651366138    0.33743101233087
H           1.73240370030458    0.80867539438600    0.11669304449291
H           1.59879061157034    2.19517800384422   -0.52169716335412
O          -0.26940528491426    1.54150331081578    2.12430920746676
H           0.45872421471796    1.81391415502981    1.51609510140943
H          -1.07017614746404    1.48431866954957    1.57551986967837
O           1.26084533571627    1.97458089338012   -2.39108357065949
H           1.82986550566176    1.47451962696170   -2.97852756407872
H           0.54220002285540    1.36714727994083   -2.14190047968877
O          -1.90978860010103   -1.90642034365072    0.96124759778028
H          -2.32620447351307   -1.04753417326949    0.78540517619807
H          -1.46644924984958   -2.16733198289819    0.12792758359313
O          -2.25993338906055    0.79273367166648    0.35093504045974
H          -1.59939789236553    0.59922760921466   -0.35400416954173
H          -2.93437865683391    1.33788986963518   -0.05711554195894
N           0.27707368792231   -0.99838983032379    2.09726087889206
H           0.07422261970539    0.04986837518658    2.27210728310769
H          -0.63832894049895   -1.46935328880117    1.83394288656790
H           0.86964425346663   -1.04095950790928    1.23573218389703
H           0.73052819452632   -1.44129965656233    2.88786901167145
