    26
        -50.46814497  Gyration_radius:  2.48465765009 Dipole_moment: 4.347
 S          -0.68985184737348   -1.21183386622040   -0.05451791553203
O          -0.69686587245145   -2.27608155723517   -1.02529891801013
O           0.67812650142492   -0.93732359540249    0.44281578995511
O          -1.25035384906528    0.03092371972812   -0.60163887169906
O          -1.53561907836000   -1.64376817596174    1.15165217393107
O           1.47526149163034   -0.48635711583375    2.93612998963098
H           1.66395541474794   -1.33900465117275    3.33155509263540
H           1.28067926460145   -0.66088248773202    1.99170272304624
O           0.03708817161597    2.15360405061367   -1.57188688878935
H          -0.57350701879318    1.40822397840825   -1.38877734203308
H          -0.04009498286466    2.72028044851117   -0.79786665021883
O          -1.47395572262278    2.05036693693385    1.04232171863626
H          -1.43476058439040    1.27191425576131    0.43472766665047
H          -2.38793535117221    2.33979654342794    1.04305121333767
O           0.44185191789666   -1.44177869029396   -3.20122686432660
H          -0.27627657703125   -1.05343171841822   -3.70504905182588
H           1.39399277880696   -0.43853340285495   -2.37824958629006
H           0.00897418744906   -1.88726166620343   -2.42667320676378
O          -1.14306619357853    0.14032694973670    2.93205553471809
H          -0.19109128622279    0.02371717074717    3.13310056992537
H          -1.21022558952385    0.97416562969354    2.42617562448001
H          -1.42098109238886   -0.95136856143689    1.88820954751647
N           1.78741870272697    0.16844047994794   -1.60453513215746
H           1.30994023574008    1.10407239363903   -1.65185931120059
H           2.79808264608575    0.23752855943392   -1.64611669452629
H           1.44921372311491   -0.29573565781417   -0.69980119107927
