    26
        -50.46691548  Gyration_radius:  2.53475080832 Dipole_moment: 4.643
 S          -0.14455837197921   -0.88796853722314    1.58129542057931
O           1.16685206977657   -1.38150435144657    1.93397307225399
O          -0.28032964588373    0.55182325327410    1.57903891369683
O          -0.62326297500733   -1.46462095630748    0.32175276611714
O          -1.13114615253837   -1.41127272780998    2.70803202760838
H          -0.77939110673496   -2.26894319679689    2.92374863529651
O           1.71604311075615   -2.43038783589347   -0.61291598599649
H           0.80856147533476   -2.22472403402052   -0.32338766274708
H           2.21977275205134   -2.46036235740364    0.20574480021914
O          -2.53229055244831    1.70820467117465    0.92885364498373
H          -2.63380593115901    2.39656555308017    1.58867709111092
H          -1.72666032766092    1.20671761381534    1.19539142186625
O           2.15394501381469    0.00935783484158   -1.68040290418231
H           2.19253104613502   -0.94863955457096   -1.47426609107215
H           2.36507145727374    0.44559017814586   -0.82429575955309
O           2.32564098473965    0.79674458240872    0.86810555005865
H           1.51996452331096    1.28276178552514    1.07976148720124
H           2.19591467883984   -0.04868890327235    1.33026165642871
O          -1.87574414505571    2.31506988317838   -1.55869232109045
H          -2.69722381460996    2.42544334101027   -2.03973644187312
H          -2.12885819289851    2.17147763702497   -0.61315132565440
N          -0.43777952996462    0.05289024217864   -1.83980456232202
H          -0.64172084170125   -0.50973665647847   -0.97441668146777
H          -0.74489297560297   -0.46303975547100   -2.65800642090251
H          -0.92712150403708    0.97754694109300   -1.78398991743777
H           0.64048894525614    0.15969534994363   -1.86157039311910
