    26
        -50.47057784  Gyration_radius:  2.49144529961 Dipole_moment: 4.156
 S           0.22121646983039   -0.19490993665433   -1.62091782649601
O          -0.20362682113190    1.18256561450467   -1.38946636115380
O           0.87408814681554   -0.72147630876499   -0.40309106176989
O          -0.86006362552529   -1.05395976719782   -2.02865859461410
O           1.31167051416278   -0.18584673185230   -2.73051742656771
H           1.91458000542171    0.53735845600284   -2.44606594010887
O           2.31636896657786    0.76183576027758    1.15423906088642
H           3.05075469317495    0.22029346246776    1.44957462371617
H           1.78715614966072    0.18963366280207    0.53865688180749
O           0.29109571096290    0.96173433429164    2.96380617799219
H          -0.00909340411237    1.87200072176931    2.98263211261383
H           1.08112532023824    0.94937361217191    2.38141137549974
O           2.34598907635208    1.89463187768038   -1.47238029159179
H           2.61983557231426    1.71884307454798   -0.56110517828950
H           1.38313295683925    2.02584226615473   -1.42303377336972
O          -1.89507868883853   -2.73718061507213   -0.19435846770467
H          -1.50886467461435   -2.17115653123271   -0.89256820077398
H          -2.06408505960084   -3.58071823067129   -0.61547728792761
O          -2.57628654091982    0.66802230950944   -0.39606822120344
H          -1.76914032756118    1.04202717643882   -0.81493775287834
H          -2.88403486163573    0.00271728649060   -1.01865058598059
N          -1.09807046579538   -0.68322486604724    1.34406179209971
H          -1.81190996667725   -0.12370673467140    0.79792174273952
H          -1.48672962259796   -1.60351526891521    1.54600564800923
H          -0.28789316761121   -0.81535620372517    0.68026355883738
H          -0.74213637572246   -0.15582842042133    2.16872397624587
