    26
        -50.46425693  Gyration_radius:  2.67501161885 Dipole_moment: 3.422
 S          -0.55429941009103   -1.35282255855646   -0.26302916886226
O           0.34918262293855   -2.40608717379980    0.17089795594222
O          -1.07281528224127   -0.58312864684054    0.86294764268519
O           0.04483753011878   -0.46843494119092   -1.25621915609483
O          -1.77412146780156   -2.02602654711103   -0.97809834384667
H          -2.01449846259428   -2.76174174043053   -0.38130054504160
O           2.53205408521207   -0.93676781302789   -0.48299380944282
H           2.19669145770830   -1.71900443161764   -0.02415281985884
H           1.75366450513133   -0.66324487634508   -1.00369355895493
O           2.73721519871693    1.20636016764722    1.01405853664113
H           2.74015677275552    0.34711205616007    0.51171429959298
H           3.19085925718887    1.83513583155485    0.45005285122694
O          -1.31103271238333    1.60495085440746   -2.09905998565008
H          -0.98693606086692    1.71938837218591   -2.99413734707906
H          -0.87508156946863    0.78622032252620   -1.76378610898306
O          -1.62695527468347   -4.00561338406939    0.77848890205892
H          -0.77034060765659   -3.52791572113289    0.77094214697284
H          -1.45075516690795   -4.87974182096914    0.42295322149661
O          -0.93173631948675    3.38931255802836   -0.19929715171316
H          -1.04287041805633    2.77288928277448   -0.96726474029246
H          -1.81699301928764    3.68972704691645    0.01392657216108
N           0.14022200973983    1.60968931459104    1.49687312073246
H          -0.24570006666214    2.36943594697159    0.88034904855922
H          -0.35984361765547    0.69414057057974    1.24177539886463
H           1.17266028876935    1.48674852118537    1.32222688816406
H          -0.02356430242976    1.81941879956342    2.47582618071926
