    26
        -50.46816155  Gyration_radius:  2.54216608616 Dipole_moment: 3.802
 S           0.77109261098619   -1.27291152944798    1.31483874301218
O           1.44451082104440   -0.08336790372837    1.81972084754464
O          -0.55571206730007   -1.41652182006307    1.87884377449560
O           0.76254362627701   -1.34564339295485   -0.13647972469629
O           1.64046487467704   -2.50079610789167    1.80462266328216
H           1.86625703659947   -2.26515569359830    2.69909095333539
O           2.21686843435412    1.84926569362870    0.08499382904087
H           1.57308821166466    2.52042000881144    0.32190611283224
H           2.10331059955677    1.13232921777188    0.73480573507494
O          -0.68015685203257    1.47818991386014    1.59566988115393
H          -1.32372328719897    1.13101586513650    2.21790145487825
H           0.13880241911654    0.96585151085846    1.76614522018941
O           1.75884334710303    0.33923904773971   -2.12111458513206
H           1.55452059883582   -0.43845304518519   -1.58101898241316
H           2.07908425628216    0.99835407160525   -1.47517528976982
O          -0.53106604193422    1.22655864698378   -3.06728703868955
H           0.39397720921409    0.97198025384106   -2.80240970577269
H          -0.66783497477724    0.85618635905520   -3.93974761363900
O          -2.90468828285043   -1.44242416590464    0.61445083339527
H          -2.09176810600292   -1.47643695438135    1.16349112609161
H          -3.23666451719512   -2.33997803673000    0.57785405740306
N          -1.28548483529523    0.23496159192454   -0.71651055841193
H          -2.16028500151181   -0.28235480361472   -0.53869231121268
H          -0.49679003852648   -0.44854743372008   -0.60606918746192
H          -1.21541952123402    0.67925003564383   -1.66277046896274
H          -1.15377052985420    0.92898864035781    0.05294024443358
