    26
        -50.46659361  Gyration_radius:  2.52864299216 Dipole_moment: 2.834
 S           0.28966031515272   -1.35888789568318   -1.49602986872269
O           1.10357006006279   -0.15659532244814   -1.64507443303866
O           0.50647325996149   -1.96813254040401   -0.19045713031186
O          -1.09888718537347   -1.13839671071932   -1.81181114112560
O           0.83655354013197   -2.39752371150403   -2.55840915959420
H           1.73279076565524   -2.52071001042182   -2.26485822720459
O           2.02565415405021    1.93433348468782   -0.21180573929067
H           1.84814590166816    1.14826957617299   -0.76084162461923
H           1.28008616242417    2.51974745082709   -0.36934960323951
O           2.36504950132949    0.94104580369242    2.21302500934090
H           2.28052346574123    1.42815490131934    1.35618943371047
H           3.21715495437965    0.50387238545265    2.18243181048341
O          -0.82279555525702    1.66055321929095   -1.47639685662845
H          -1.53127773664961    1.35323332243021   -2.04641633691852
H          -0.10773193082419    1.00388704731950   -1.60494728941133
O          -2.84030636724089   -1.17496698337627    0.16944817323036
H          -3.67551001938954   -1.45161872820091   -0.20977649495253
H          -2.17969627870580   -1.24553110084344   -0.55513187414832
O          -1.78787062359896    1.15678701381802    0.99026626203669
H          -1.44657283821006    1.48680067871855    0.13114259244688
H          -2.38715139002284    0.41983636130986    0.76011938907568
N           0.08281358536384   -0.43489703722233    1.89805950481349
H          -0.25148098849283   -0.96813473158183    2.69337429808054
H           0.24715116792698   -1.08433342603816    1.07855579849899
H          -0.66244649083795    0.27916950867094    1.60144871378193
H           0.97610056075526    0.06403745473632    2.12724481371335
