    26
        -50.47612854  Gyration_radius:  2.47856799952 Dipole_moment: 2.436
 S           0.55637332608494   -0.69772678329602   -1.16772213416402
O           0.50616490966424   -1.49437051742854    0.05397804196720
O          -0.78324534948522   -0.48343280741576   -1.70836882421161
O           1.26078157634241    0.55655213139557   -0.95368363269664
O           1.38204208352669   -1.49243185439990   -2.22275466085503
H           0.77948051760239   -2.21897657499505   -2.47914883753949
O           2.50668617239046   -0.00176454499060    1.35070676901048
H           2.24071664672180   -0.92570373238197    1.37867704896911
H           2.24034676988034    0.28941830998858    0.45874169754979
O           0.62302503539021    1.44115035892648    2.59022601860477
H           0.44306401484694    2.08625736858053    1.88575219370883
H           1.44318420039420    0.97724923388765    2.30356694646585
O           0.05002868228504    2.61327396817639    0.13957952564838
H           0.51630327360549    1.87014621520772   -0.31256212977240
H           0.39252124061191    3.41732832170833   -0.25374262133461
O          -0.79822542952226   -2.88043545929053   -2.76388857818647
H          -1.07579677662794   -2.03133571260361   -2.36389675682555
H          -1.11491378602046   -2.87301577227908   -3.67014907238660
O          -2.24102930507893    1.08455867106993   -0.11968294966541
H          -1.65753101690010    1.85813700332055   -0.05455400227580
H          -1.84897465654395    0.53491246636432   -0.82956040554583
N          -1.10487300020920   -0.34461902794303    1.77433873678056
H          -1.62280720976644   -0.91829091878347    2.42971089818522
H          -0.45974832382834    0.35763249268678    2.26498992911304
H          -0.49129439204614   -0.93044195919500    1.14311484315099
H          -1.74227917330932    0.20592911368831    1.12633195630451
