    26
        -50.46944519  Gyration_radius:  2.47834803016 Dipole_moment: 2.099
 S          -0.11638969545842   -0.23669054456423   -1.71830294049524
O          -1.55836827982229   -0.13589096707219   -1.78812748992230
O           0.50837126824497    1.02801463229401   -1.34932812130155
O           0.35651183480742   -1.33605055792196   -0.90112101362593
O           0.38853767886461   -0.56995305862870   -3.18623464055832
H          -0.06305833245683    0.05321246613144   -3.74740246701262
O           2.86265689628614   -0.10905711252832   -1.02890429951768
H           2.52892088521756   -1.00584095905852   -1.12928425580806
H           2.08989575191212    0.45157001300618   -1.23907461244893
O           2.79248175452812    0.64478404524302    1.51397159404955
H           2.99724271739332    0.35238680419289    0.59111363768871
H           2.65996530442283    1.59327801355923    1.46181376437850
O          -1.54778474936450    2.09361211200466   -0.03775900453622
H          -0.70534847259731    1.87015595633762   -0.47526588651414
H          -2.21344590219779    1.68078912356901   -0.59653493927416
O          -2.61305400726852   -1.30475524059207    0.36226847712645
H          -3.34517848605488   -1.84639974020869    0.06543569668695
H          -2.21654060282906   -0.91811679318159   -0.44549782220088
O          -1.66516644851892    0.51751228618922    2.11629081596827
H          -1.63032420491335    1.25478540918597    1.46487897105803
H          -2.23353897984333   -0.14840513205579    1.69082418030786
N           0.55129086868149   -0.79492012652413    1.69179613655368
H          -0.32222632479741   -0.22316561909413    1.95892081662595
H           0.62885517323454   -1.61619182824521    2.28219443844086
H           0.44085598791438   -1.08613056778811    0.68808819875605
H           1.42483837460222   -0.20853262425285    1.75524079536613
