    26
        -50.47150442  Gyration_radius:  2.4014183873 Dipole_moment: 1.538
 S          -0.24270048424096   -0.98684751437466   -1.50455672114925
O           0.47994946800647   -1.61218326296066   -0.39907137458891
O          -1.63753725844145   -0.77447033437050   -1.16056622119138
O           0.41383585749845    0.20214100666151   -1.99642479995263
O          -0.20956056387887   -2.03163537054956   -2.68649792883276
H          -0.56792249846796   -2.81466966903597   -2.28108001805668
O           2.77809402269883   -0.25608981149153   -0.59388486683052
H           2.07297831112538   -0.91614767421986   -0.46621961806847
H           2.53346533579643    0.18353646943493   -1.41424089231739
O           1.97824540473957    1.40994973496143    1.35450831179976
H           2.47921993810153    0.83166679259034    0.73627701142782
H           1.48272483893641    2.01319525525481    0.77746873059328
O           0.30560728391618    2.43381147849400   -0.62303452797320
H           0.36701444633716    3.16919139400457   -1.23447570244076
H           0.35849236958104    1.61497556828340   -1.17183575555553
O          -2.21772085404905   -1.88738474400859    1.25032685976374
H          -3.14034040114937   -1.67485839997287    1.40106033197690
H          -2.02425966274776   -1.58684550463117    0.34583457798478
O          -1.85980761824525    1.25072396240936    0.59529299171994
H          -1.24670832525379    1.91160243716828    0.23368425093792
H          -1.97961781579091    0.59457830075660   -0.11739159238097
N          -0.02217523397407   -0.22166838321726    1.82341538565676
H           0.82738031856190    0.42317685830203    1.83947975729164
H          -0.86367060867350    0.34781993520529    1.52528108695407
H           0.13536110385898   -0.92555782037248    1.06576428346822
H          -0.20034737424548   -0.69801070431987    2.70088645976435
