    26
        -50.46810349  Gyration_radius:  2.56210414859 Dipole_moment: 3.974
 S           0.03543562710341   -1.81790314957458    1.07678223938256
O           1.24199625366759   -1.06729271095300    0.71347802656817
O          -0.76657244615754   -1.07639354343397    2.02896647214377
O          -0.70892063163403   -2.27017156935643   -0.07575676390399
O           0.54898735676157   -3.12571477074558    1.80737565411424
H           1.06890092425205   -2.80502480765276    2.53870990534306
O           1.15481750478377    2.64120803548386   -1.69559311204151
H           0.62719888654577    2.00649173464590   -2.24660328664920
H           2.06583697824783    2.53551132489040   -1.97333107131174
O          -1.94291369067658   -0.02841015866430   -0.59120161706349
H          -1.53473512139347   -0.91815103862144   -0.45999014112879
H          -2.76905866573636   -0.05238352614303   -0.10517181703281
O          -0.20346452280877    0.66486828922476   -2.78795615090870
H          -1.01781651405627    0.49796511611167   -2.30038471215217
H           0.36536905560012   -0.11734169432834   -2.61645194567811
O           1.17505147997951   -1.49690331437207   -1.94184319840116
H           0.48007988608711   -2.15974650064977   -1.86672287943485
H           1.41835953224540   -1.31656868403186   -1.01690521048293
O          -0.44895938531418    1.36268692517419    3.03269208995281
H          -0.55917849966771    0.42215231027081    2.77325215987007
H          -1.16872919499081    1.56117244104859    3.63269024217073
N           0.19521942833028    1.34108090361149    0.41750078384753
H           0.64696826855912    1.99147477610856   -0.27361044427679
H           0.03282236089056    1.74661891562633    1.35223554681288
H          -0.71040004059096    1.00471266209434    0.02962968908293
H           0.77370515999084    0.47606203424865    0.54820956117827
