    26
        -50.47046813  Gyration_radius:  2.50664512714 Dipole_moment: 5.089
 S           0.04947677143150    1.16210404785029    0.39185914025021
O          -1.14931751543005    0.49258391560271    0.92444414768566
O           1.21012169640153    0.27122284313445    0.53523743671577
O          -0.13394537347603    1.55609806310748   -0.98358560319051
O           0.31010284470698    2.42015417993691    1.24543641715638
H           0.08365939520868    2.12581901363769    2.17594087524051
O          -0.39528941217924    1.22383747714776    3.40350706792972
H          -1.01465658917871    0.77798109976242    2.80658414249507
H           0.34885385677014    0.59624729796085    3.52113786903960
O           1.72926511637967   -0.38628761507059    3.03310306996848
H           1.58934642831079   -0.19201232684167    2.07901743360710
H           2.58697330530391   -0.02013772052827    3.25553350010747
O          -1.57440331599535    0.41251628348460   -3.02610458881133
H          -1.40689623185139    1.19751791317871   -2.48274573747828
H          -0.67616586050613    0.17780426821973   -3.34400653112135
O           0.92284236819370   -1.96686045683355   -0.73727745161864
H           1.36844368785840   -2.65200951418592   -0.23624558223396
H           1.09517065996726   -1.11694711372593   -0.25081226638359
O           1.05800858976658   -0.03264649373672   -2.87900950811064
H           1.27629653915796   -0.83320921569882   -2.38968049555174
H           0.90306373825998    0.65149905022602   -2.20501396229185
N          -1.65910640003262   -1.20076041369368   -0.97041717786950
H          -2.45661752642593   -1.81797018241366   -0.86134807055939
H          -0.76094689379458   -1.72568314908626   -0.98193404256517
H          -1.72658732529720   -0.60695132681313   -1.86770502992433
H          -1.57769255354089   -0.51390991462120   -0.15591503248239
