    26
        -50.47124170  Gyration_radius:  2.4535871264 Dipole_moment: 7.129
 S           0.68496105588026    0.63718321493388   -1.32717540856490
O          -0.72188743106536    0.23748394587608   -1.42546337874015
O           0.80977648436081    1.98731171897065   -0.81611832331423
O           1.44626096394028   -0.33424031125869   -0.55565253440380
O           1.27888360363251    0.59224292986390   -2.77318207154554
H           0.73619424711402    1.25847542351434   -3.23467709515648
O           0.62779312709009   -2.80640922813593   -0.38692566804292
H           1.42462779817403   -3.33218222531754   -0.47690569455363
H           0.89801266209849   -1.87853840662264   -0.59750716736276
O           1.51330883406146   -0.09597009600517    2.11197963340630
H           1.76006512294778   -0.14557902702660    1.16711981088363
H           0.99473354353540    0.74295609432530    2.16810513344588
O          -0.63632241445221    2.39401164756528   -3.06979541818411
H          -1.14256615080329    1.67616579707864   -2.66395678368039
H          -0.20126021001604    2.83315177295751   -2.32593081263853
O          -2.08556475608077   -0.06325302440098    0.72585115119713
H          -1.55623845575168    0.04538040374824   -0.11605123476450
H          -2.99480679487698   -0.17721160844306    0.44441022234958
O          -0.17948058151471    1.88273877722638    1.66739613352365
H           0.20646951959966    2.08206804100827    0.79080238482627
H          -1.01394087153269    1.43231049389721    1.48977241890306
N          -0.38906648613917   -1.82082804205453    1.86640271859923
H          -0.66623351990641   -2.39246265881833    2.65571234353412
H          -1.17236282969160   -1.22194825585852    1.52309330664651
H           0.43142377924204   -1.13852636154778    2.10569544338871
H          -0.05278023984723   -2.39433101547903    1.05300089024604
