    26
        -50.46959534  Gyration_radius:  2.46646330367 Dipole_moment: 1.565
 S          -1.06671191621195   -0.91397361393417   -1.63813180939455
O          -1.99745671254069   -0.84144074904044   -0.52614782067188
O          -0.57292439156691    0.37831175060222   -2.06135020675530
O           0.01811029204552   -1.85527240409966   -1.38306594699901
O          -1.89083385972313   -1.49938960166959   -2.85866058230887
H          -1.30291807874147   -1.31896581245417   -3.58426227308989
O           2.10052359959088    1.29078580787528    0.64946859447518
H           2.21239252408454    0.45652227611963    0.12279517165943
H           2.97240892605288    1.68096981354119    0.72224294849773
O           0.29343749215298    0.23708192526119    2.45106231129777
H           0.23091558177957   -0.68535555142479    2.11901025827958
H           1.03737536645989    0.63934075730122    1.97074712453749
O           0.00024694606703    2.53922403122265   -0.63268965355494
H          -0.16801162547750    1.87319527913710   -1.33054838233667
H           0.83463036559315    2.25473033764437   -0.21776227987822
O          -0.12556777148629   -2.13946835166743    1.25167000528792
H          -1.05130514164657   -2.33522870636402    1.40994925669669
H          -0.05136997864621   -2.08819734783460    0.27574645435126
O           2.38700967464899   -1.00786558686321   -0.59729932504791
H           2.53986716023109   -1.70367802343240    0.04701635078512
H           1.54393826610162   -1.25439757809429   -1.03618271199868
N          -1.61904374011955    1.27479511842188    0.98538596720076
H          -1.88606811946418    0.45424374230518    0.37811216231197
H          -0.93945898284370    0.90609208032604    1.72092761908427
H          -1.06438035914022    1.94597287803679    0.36469116528074
H          -2.43480553734603    1.71196753909887    1.39727558190600
