    26
        -50.46564647  Gyration_radius:  2.57473302098 Dipole_moment: 3.750
 S          -0.56737546139857   -0.93793526667908   -2.04035767834608
O          -0.45776660470473   -1.78163743743353   -0.86224199812848
O          -1.38422419487993    0.24395286701451   -1.80799085695312
O           0.72320940356220   -0.59780059766494   -2.61154746199917
O          -1.33186524616921   -1.80597847966099   -3.11984649564584
H          -1.37369792391249   -1.21702099852034   -3.86634141423198
O           2.30221185793615    0.78613311409520   -1.10615813400396
H           1.72730533065587    0.27466613792370   -1.73660441901611
H           3.13716488142857    0.91937846489451   -1.55685855046389
O           0.79739090425553   -0.43864836664055    3.65408094089197
H           0.63649358726841   -0.52887938460045    4.59369775421477
H           0.18190558788148    0.23478741447029    3.33259615395053
O          -0.07932331520208    2.24576335752711   -0.52702252315324
H          -0.62124768293134    1.65156026159828   -1.07807858076811
H           0.83748146124208    2.02638284767311   -0.73644620921227
O          -2.48325038449845   -0.44115707448012    0.51775875525901
H          -2.13596949286851   -1.33816275573575    0.49128490424795
H          -2.26657789658162   -0.08377743561266   -0.36529713411769
O          -0.74511957449712    1.12496216672769    1.79340742929093
H          -0.58890882314365    1.78802765513898    1.08409159255846
H          -1.53316932542696    0.61847028306769    1.48572557845847
N           1.07080327336517   -0.56542767795280    0.89628870334798
H           1.78156893850587   -0.07018859520622    0.33208014861160
H           0.52453405863117   -1.19212467124863    0.25021756989535
H           1.47142719120285   -1.06433888594881    1.68890800917986
H           0.37699945030690    0.14899306723950    1.29465390612677
