    26
        -50.47395390  Gyration_radius:  2.40847311523 Dipole_moment: 3.050
 S           1.02412321526103   -1.40975206510594   -0.25421660615496
O          -0.22803046261279   -1.27533972325997   -0.98710090745463
O           1.54212836132855   -0.09179636986284    0.13249159033308
O           0.90018341337141   -2.29253188712765    0.88391238189531
O           2.07975905519141   -2.03470392302711   -1.23115991178699
H           2.25277261522391   -1.33061302365977   -1.87524527136001
O           2.41878437451518    0.49515279029951   -2.21257563952723
H           3.31200633841930    0.84411461881891   -2.22027055682873
H           2.13709227550094    0.45684247029040   -1.26694803492464
O           0.21195330679324    1.32258554281376    1.95507222738685
H           0.85531136406239    0.91390037566783    1.34023302787634
H          -0.44671232745539    1.73961605415929    1.37281939570955
O          -0.38994658238694    1.08961512553836   -2.16098910138238
H           0.52018327158145    1.24594586777263   -2.43537848304195
H          -0.39423652757312    0.16246730883086   -1.84104040548791
O          -2.46685327336694   -0.61484746301622    0.33477073865903
H          -2.37336768383585    0.34910082037108    0.22636091217627
H          -1.80557187007268   -0.99198576081094   -0.27926047984464
O          -1.61155267912164    1.99793366718367   -0.00703167136103
H          -1.11730404726881    1.73511797514017   -0.82603847752996
H          -2.14066606538652    2.75932821539971   -0.24812667734524
N          -0.86712924718016   -1.02930989237863    2.35936894846882
H          -0.14677983011683   -1.64527485770305    1.89321864059830
H          -1.67694720492744   -0.94822281561384    1.66783205867753
H          -1.14966222853964   -1.39382705222165    3.26197810104118
H          -0.43953759097946   -0.05351596899534    2.41732419122326
