    26
        -50.46901288  Gyration_radius:  2.46599849157 Dipole_moment: 2.316
 S          -0.47982816750337    1.16371819635315    0.92017134560885
O          -1.13165120857595    0.97750183979907   -0.36295998675251
O           0.05670657170773   -0.10428747072876    1.43299579202302
O           0.52983485303755    2.19684260401704    0.89654167324768
O          -1.59209636668638    1.61208146333603    1.94365662875800
H          -2.22127020228418    0.88281096685762    1.93865674120228
O           2.60689235439849    0.33082795295401    1.03181180630324
H           1.72658358000754    0.00673547124108    1.32258396599793
H           2.53353484810333    1.28522032145709    1.14754168578220
O          -0.26415091483579   -1.16860224260424   -1.63429637878673
H          -0.64289344754780   -1.92991788725378   -1.15464756402494
H          -0.68317849639446   -0.38431612927451   -1.21765596412002
O           0.87676145173566    2.33289501400697   -1.71882026830090
H           0.83695668124173    2.48451366990064   -0.74960332878457
H          -0.02964692307445    2.08607564171844   -1.93564611836806
O          -2.24463133774587   -1.14239855592898    1.86411032801475
H          -1.30996413536336   -0.85245847574431    1.71104742019517
H          -2.24493859970378   -1.60358833688379    2.70605212227677
O          -1.85632329098261   -2.89366126443323   -0.24131516426174
H          -2.07058471282145   -2.30104293889572    0.50327175981076
H          -2.64572280533614   -2.93978878012003   -0.78372793544061
N           2.07943966409679   -0.02362453021775   -1.54109863131875
H           1.22293391856295   -0.65882947167158   -1.58474405831481
H           1.71669042289557    0.94755654812694   -1.76481545828551
H           2.42875162479996    0.01605408458586   -0.54175498785954
H           2.80179464831493   -0.32031770063517   -2.18735545459481
