    26
        -50.46987934  Gyration_radius:  2.50306156504 Dipole_moment: 2.255
 S           1.53194709014819   -0.31076607330520    0.54767543849220
O           1.20220667030441    0.14151765490634   -0.79337429825424
O           2.45805552895067    0.55884586358139    1.22849639063515
O           0.33182301637962   -0.62344204414321    1.31023473476965
O           2.29319421582373   -1.70348973594602    0.38302187948449
H           3.18525019618199   -1.41811942098775    0.21694525787454
O          -0.10559307859668    2.48497706410509   -0.67586409780338
H           0.33104341468924    2.83661391452124    0.12667688090682
H           0.45982707078234    1.73866871267225   -0.95254145668606
O           1.14128951220997    2.80344206214546    1.67142961009339
H           1.64209448433364    1.96259923968850    1.59079144452118
H           1.78131399032132    3.46564697123269    1.93869696774532
O          -0.42780656517886   -1.74017616553241   -1.85131262285614
H          -0.41403073579250   -2.40102980900347   -1.13084447090997
H           0.20714937521768   -1.05081723783242   -1.58311783440070
O          -0.15434138251899   -3.12391818621200    0.46751143416218
H           0.70863742465002   -3.54284142433591    0.48076984570618
H          -0.03463315433289   -2.26881572662625    0.91895146204428
O          -2.73229912295107   -0.54674600868070   -1.65177582237326
H          -1.90908787615471   -1.09862348568624   -1.79071698255278
H          -2.83082403095569   -0.02473664618357   -2.44973242185773
N          -1.75826085962551    0.77534994586469    0.41651537940171
H          -1.22483388935949    1.58989068736156   -0.02952592659172
H          -2.40863675995208    1.09186337732063    1.12710183095025
H          -2.25208851912425    0.24036444234842   -0.35776620024564
H          -1.02139599545482    0.16374203873795    0.84175358774423
