    26
        -50.46647959  Gyration_radius:  2.50411280472 Dipole_moment: 5.162
 S          -0.25472575784060   -0.55285071162968   -1.76976471477876
O           0.30290799580361    0.75053920825491   -2.07815503538991
O           0.75708961489603   -1.47854575741771   -1.27465481389716
O          -1.41717793779595   -0.51392469054845   -0.90805033433218
O          -0.75663281700996   -1.14306767607221   -3.15136271276672
H          -0.02355449454808   -0.94945225664980   -3.72588288647406
O           1.09597448699118    1.12637500995979    0.48188800407410
H           1.00895803373951    0.95252714754812   -0.46790361533621
H           0.19807681664355    1.39669874154627    0.77082487113397
O           2.45366196298953   -0.43380984949834    2.10332681482125
H           3.33929386463632   -0.48809572619622    1.74084337936703
H           1.98962504644656    0.26013297656962    1.57153556882508
O          -0.84503110238101    3.14135376946299   -1.47521790767652
H          -0.48498805476076    2.29599773695461   -1.80309028206595
H          -0.09737883155829    3.73934325419592   -1.42343375600511
O          -1.82457316209088   -1.17096878570342    1.66366352541202
H          -1.91926029835323   -1.07508334823525    0.69695135206936
H          -1.86031312455113   -0.26806774884934    1.99829179761449
O          -1.53340250401138    1.64486046052520    0.71006747134341
H          -1.65944786632248    0.91276467742355    0.07957904994376
H          -1.51091523082957    2.43056800928209    0.13806541000628
N           0.61222872397374   -2.13947462710544    1.24136211843381
H          -0.33505879985134   -1.79928926770293    1.56446401994223
H           0.67014026799692   -1.93024686500894    0.19736822867220
H           1.37408466691112   -1.57583919955945    1.70417462639051
H           0.72041849087858   -3.13244446153533    1.41510982066847
