    26
        -50.46637111  Gyration_radius:  2.58565764704 Dipole_moment: 2.424
 S          -0.55170723198853   -0.89158657327926   -1.91578179594652
O           0.39303296818427   -1.66999475134850   -1.12979138007802
O          -1.89036129886525   -0.89433916807770   -1.37884383816299
O          -0.05044138475046    0.46159743988606   -2.15172000798688
O          -0.62354212494206   -1.60234913690205   -3.33160691027938
H           0.28342296424222   -1.82862734871216   -3.51717664006336
O           1.20461155552086    2.38500482590908    1.21422724376068
H           0.28227487846350    2.45710327734971    0.94551969796486
H           1.66012505832368    1.97174125277110    0.45164724350168
O           1.65794658753417    0.36522120816083    2.86933950272087
H           2.57366621746503    0.12775594329595    2.71492796623842
H           1.52319109083766    1.23157040383270    2.41031063161620
O           2.22283865830041    1.07211963013145   -0.92497808669950
H           2.71659278781966    1.60066961495228   -1.55397322555436
H           1.41287475247771    0.78029538737426   -1.39507730730234
O          -2.48093429131993   -2.02350769759088    0.96781089540046
H          -2.70244308993182   -2.94512212365115    0.83038245029215
H          -2.38416539826032   -1.63206098082298    0.07345193325759
O          -1.23949497270791    1.53998550068495   -0.06481579412649
H          -0.81779343216847    1.28197783495502   -0.91481331739428
H          -2.17056809091061    1.33476395307676   -0.18195206617568
N          -0.19233243730563   -0.63246488334400    1.22186826068344
H          -0.59925028247898    0.26582256300651    0.87940331434756
H          -0.97498167857018   -1.22903777848213    1.53714063987670
H           0.22594069499151   -1.10339506358228    0.38218961070315
H           0.52149750002813   -0.42314332957855    1.96231097940922
