    26
        -50.47612863  Gyration_radius:  2.47892638906 Dipole_moment: 2.435
 S          -1.31653233891291    0.16302338837239    0.63140288957322
O          -1.35600926858283   -0.10710316730694   -0.80223597051322
O          -0.90646633781246   -1.02405105152933    1.37678130075452
O          -0.47269661890878    1.30891086830261    0.93155515866742
O          -2.75676932330832    0.54503900128352    1.08540476677167
H          -3.23553632161351   -0.30759207763788    1.05653648078907
O           2.14869497891882    1.30533443523223   -1.69082923220630
H           2.39720832365606    1.34024138444632   -0.75175993441754
H           1.33879788800890    1.86170128436604   -1.75795140906097
O           2.13694305579679    1.06246665426544    1.07468925526507
H           2.46660926109080    1.66119918904371    1.74652578123642
H           1.15631398037477    1.17386007926643    1.06958065965810
O          -0.28863728250620    2.39775275251987   -1.50863439791562
H          -0.37985526057287    2.20353166663732   -0.55717357356565
H          -0.91595056009266    1.79949428584827   -1.92549345836296
O          -3.31763799049781   -2.03187576230128    1.20796391248224
H          -2.34648092658464   -1.93395662463362    1.28122130883428
H          -3.62233081085360   -2.37852542834552    2.04978846844439
O           1.63832354615203   -1.65287184124026    0.89123407902994
H           0.71766139241131   -1.55211203180412    1.21060218109790
H           2.07209075137945   -0.81371143450664    1.11638652864296
N           0.97384093507452   -1.02852020511065   -1.57647195853277
H          -0.02034205166734   -0.73272768884319   -1.37097416463058
H           1.52899499215088   -0.13076732253464   -1.76597635024234
H           1.34244516165277   -1.44724490609707   -0.67201178883568
H           1.01732085524916   -1.68149546769378   -2.35016051298222
