    26
        -50.46726749  Gyration_radius:  2.40698273042 Dipole_moment: 4.254
 S          -0.67014453196798   -0.48902484175162   -1.03147750294133
O          -0.73792295360157    0.91144942414193   -0.57305512125388
O           0.56395317668486   -1.09702732763609   -0.51955402650395
O          -1.83654276463954   -1.24237001667695   -0.64737833926237
O          -0.58332570547284   -0.46477026241785   -2.57559051666601
H          -0.07149279448621    0.36465919329195   -2.80045051594776
O           2.14536681898573   -0.21014360131548    1.49094118060937
H           1.63713502538325   -0.69791694443853    0.81317236609742
H           2.80950038250833    0.27586249614494    0.99467841740502
O          -2.99631816888813    0.83555017915088    1.05191741617367
H          -2.41960221750687    0.99128808198437    0.29282399715716
H          -3.41247396716443   -0.01081337857228    0.87426280817228
O           2.66121211242006    0.15425360780190   -1.49757990621275
H           3.14160536862419   -0.41200301371751   -2.10367636712937
H           1.89456548550402   -0.37486142777811   -1.17585895038783
O           0.77839047065040    1.72170093625037   -2.64422327812391
H           0.25637160106427    1.92821677122424   -1.85482832265601
H           1.62851073114105    1.36911016655635   -2.31392666855650
O          -1.16604443787895   -1.94110819648455    1.78032885247093
H          -0.39300392742657   -2.49322849916734    1.64091790196612
H          -1.54341276839018   -1.79386117609575    0.88137182231160
N          -0.33329940832358    0.56041056859404    2.01591385554188
H          -0.52434333475807    0.84842073756652    1.01819687337398
H          -0.74434248690253   -0.41605040466331    2.10018154266656
H           0.70074795877752    0.48052179515478    2.12241658942419
H          -0.78508968433310    1.20173514284713    2.66047586227554
