    26
        -50.46771431  Gyration_radius:  2.44599416289 Dipole_moment: 2.501
 S          -0.22079015771722    0.16497149931459   -1.92438421353369
O          -0.54616198564667   -1.19153586350514   -2.33724429958361
O          -1.26665838271200    0.75399511257001   -1.10162206105813
O           1.08157495620261    0.26529419670260   -1.29962061580930
O          -0.15492974558158    1.01256676017832   -3.25899051407602
H          -0.82446439561319    0.58273188194698   -3.78015940764304
O           2.30622158173958   -1.57629224636223    0.25508568733516
H           2.11533963683556   -0.97293291296826   -0.48618254707629
H           2.47614597757064   -0.98949638846913    1.00009140553685
O          -0.53420552641216    0.82153636362192    2.57502507265851
H           0.38679540465758    0.73592141497004    2.26601685066024
H          -0.82820629461554    1.64168966929763    2.14906200826595
O           1.76559288776450    1.13453170488858    1.15520850047997
H           1.49859764190284    0.90716204688029    0.24337336084077
H           1.63267323154715    2.08399347009711    1.21556265766538
O          -0.67789090765952    2.74664241309835    0.57839464574491
H          -0.85410342638785    2.03091479487230   -0.06766189005814
H          -1.28003922095354    3.45657433065602    0.35297824060216
O          -1.84887659028081   -0.83326053451779    0.99905531008157
H          -1.43217246464128   -0.29489672308252    1.72033369377245
H          -1.84759155414330   -0.24098825443001    0.22315999610342
N          -0.18234907238906   -2.48122928345816   -0.08349259671831
H          -0.88083590987400   -1.89816848103186    0.50517433003003
H           0.80898743204903   -2.26340219674194    0.19189124789438
H          -0.37565842331880   -3.47505905792632   -0.02451740194559
H          -0.31699470233314   -2.12126372658037   -1.06653746017582
