    26
        -50.45198912  Gyration_radius:  2.60464831903 Dipole_moment: 2.744
 S           0.70906741107867    0.06726696608461   -0.03908882341343
O          -0.57190686402080    0.28828344042213    0.59975133388073
O           0.90518820669730    1.09868060435993   -1.15642101162592
O           1.82637251563393    0.37373336824486    0.92031660753185
O           0.84179255924086   -1.26143643941440   -0.59267779398845
O           1.61596701345063   -3.15915314370050    1.10195209945207
H           2.41051279408623   -3.54988350346749    0.73370528460224
H           1.25741703641543   -2.56082366198633    0.41369193442689
O          -2.28661669217553    0.40145330155969   -1.53316863770150
H          -2.23998730328332    1.37134140008905   -1.67367728721012
H          -1.86739660544980    0.26315981353783   -0.66870225507759
O          -0.81924104898012   -0.60848068983684    3.09379811102324
H          -0.86652167397900   -0.30863041438048    2.16267183969772
H          -1.13506803661042    0.12120243189992    3.62975587002297
O          -0.19827787330207   -0.27328928036995   -2.92320123022908
H           0.52051260550350    0.62017299960723   -2.00018024097561
H           0.08230896427540   -1.10543705547566   -2.52186655431046
H          -1.11915000346830   -0.09783918837734   -2.57013448882109
O           1.73078771111902   -1.17622476840034    2.81758174340356
H           0.79253676898345   -1.04477503150775    3.11120002217846
H           1.74103570858866   -2.04335024502446    2.33497178693990
H           1.83831223081174   -0.30543061575856    1.82094722742395
N          -1.46316123192782    3.01092103604687   -1.76105815935327
H          -0.53591590574783    2.73812217806086   -1.45165385210001
H          -1.79158442293964    3.75023056495121   -1.15289690228624
H          -1.37698386398615    3.39018592287010   -2.69561661348341
