    26
        -50.47359318  Gyration_radius:  2.46614669739 Dipole_moment: 1.463
 S           0.36953299299663   -0.82015675441911   -1.11731337083429
O          -0.36889038406100    0.26263266669400   -1.76519442376560
O           1.47163915636316   -0.28917119234636   -0.32398010322386
O          -0.49191960125816   -1.67360824367318   -0.31715322532873
O           0.96837738417866   -1.72414650897639   -2.23704552278029
H           1.35748745799158   -1.08843086248621   -2.87038148627935
O           0.40435942263920    2.01858129072546    0.44446943327040
H           0.02512135558827    2.39450016155250   -0.35296187129078
H           0.85733257150417    1.20402521587394    0.14368191314903
O           2.13745640195010   -0.20352364000422    2.24324220035609
H           2.19243094724592    0.74632825412836    2.37654121088702
H           2.10992349920528   -0.32359566172182    1.27145813548178
O           1.38513317864052    0.43812090272104   -3.70017548883621
H           0.96987034954325    0.46645069933239   -4.56516525508846
H           0.68541722403001    0.64158625972558   -3.04654461259392
O          -2.67035148615062    0.11657435031676   -0.41118135167777
H          -2.68155507544840   -0.83937463423653   -0.31462690250646
H          -1.90190703067072    0.28406941394599   -0.99021170446168
O          -1.70364017631162    1.13109798400952    1.87205039252243
H          -0.95920438251078    1.63574957879169    1.48060643098776
H          -2.24709721198482    0.86244144108243    1.09724633277154
N          -0.38658187035662   -1.07072241985269    2.24538963018071
H          -0.99231176720728   -0.17348137383604    2.23624398827111
H          -0.42072204208750   -1.44136642877720    1.25764679531339
H           0.61087565427740   -0.79539435310795    2.43345272483453
H          -0.72077655802031   -1.75918615534309    2.90990611058352
