    26
        -50.47191000  Gyration_radius:  2.46928788767 Dipole_moment: 1.480
 S          -1.12381139782127    0.06972600606345   -1.64129541357489
O          -0.50946770514556   -1.20187182182940   -1.30808260026917
O          -2.55916337380739    0.09646290999480   -1.50454525762863
O          -0.45823817850427    1.17479727655688   -0.96141436388952
O          -0.84491796256277    0.27829819104982   -3.19994229908089
H          -1.67930868536131    0.60149674215186   -3.52395622629456
O          -0.53142373608611   -0.28211608047163    2.62810251341730
H          -0.09247836441128    0.55790793032040    2.40753964859741
H          -1.40306084459340   -0.23278041601726    2.18813357997064
O           2.80073173720527    0.08584296007369    0.50058866306561
H           2.67414538344937    0.20435390107543   -0.46473040112135
H           2.31944333104673    0.82456658774559    0.90754394380459
O           0.73567067049300    1.77467762469961    1.31443646163663
H           0.25831082794295    1.55905930815025    0.48167513134322
H           0.64710095083565    2.72201631886990    1.42718301282656
O          -2.76090103209469   -0.14409527633539    1.11813486745533
H          -3.55162855703970   -0.67207461742941    1.24195940146879
H          -2.68772599837959    0.00585276754262    0.15301919304956
O           1.84621096543275    0.35168576302723   -2.00009704290306
H           1.55465785583483   -0.40816533313914   -2.50775602334475
H           1.02280940085849    0.77251183272446   -1.69162712613680
N           0.87575583009807   -1.65893657418258    0.89350040186765
H           1.75874812062781   -1.06994111983767    0.77976009443874
H           0.31521203321010   -1.54828185773396    0.00991053448861
H           1.08908082342569   -2.63408446035773    1.06660512359108
H           0.30424789534088   -1.22690858271404    1.68535418322696
