    26
        -50.47395398  Gyration_radius:  2.4083976218 Dipole_moment: 3.046
 S           0.32462228336624   -1.70960204743609    0.27061377398929
O           1.17985880779138   -0.84336719157044   -0.54979318262681
O          -0.37559326304725   -0.93056353799853    1.28341813711726
O          -0.58012284597019   -2.49335837917294   -0.53995722787929
O           1.28132432829553   -2.70390772160155    1.01607297446587
H           1.96404033176853   -2.13233464202330    1.40019819616785
O          -0.45538589376219    2.52571740822113    0.00182578670031
H           0.13807498652100    2.11175038333797    0.68051194316827
H          -0.47168083682470    3.46312640562899    0.19859123220778
O          -2.41719382048998    0.64789705140634    0.55199569139426
H          -1.88292028202431    1.44813848645496    0.39782685411150
H          -1.81036694087652    0.03823292750115    1.01758656743295
O           3.01641545402273   -0.60072320280892    1.23393037698597
H           3.90551920648350   -0.73396172581848    0.90014673684203
H           2.42069156606329   -0.56150566491328    0.44740544252687
O           0.94675279182841    1.28684142982434    1.86061352311033
H           1.86412895307231    0.99651292651349    1.81345102213468
H           0.42377437902386    0.46058870273975    1.78467971053908
O           0.02875641076189    0.91260346248013   -2.18771151184134
H           0.60677255108151    0.28427866606527   -1.70800803583046
H          -0.11736519082063    1.63702920546532   -1.55469285328243
N          -2.02831302587619   -0.63113541113578   -1.69350908549335
H          -1.27450588051691    0.00390599463509   -2.10195555134734
H          -2.75142510879276   -0.87088125941393   -2.36212034849046
H          -1.53179652263806   -1.48758870109296   -1.32540777360054
H          -2.40406245843987   -0.11769356529372   -0.83571239850376
