    26
        -50.46204080  Gyration_radius:  2.49978855246 Dipole_moment: 4.515
 S           0.33127467511938    2.06473871127928    0.20941640570403
O           0.39583125157267    1.55982865845126    1.56785722288512
O           1.45332350698280    1.59084811190215   -0.59837947178361
O          -0.93855500397065    1.83641844719401   -0.43950440059626
O           0.50843048752345    3.63463555830235    0.31246269345716
H           1.32644792745081    3.69553297947760    0.79434848278544
O           1.08810117428095   -1.07751096151535    1.43604996865043
H           0.16222493538886   -1.38803169490454    1.32076271039762
H           1.02112410581832   -0.11201211675243    1.51339581578832
O          -1.47219332723754   -1.65118597952838    0.83560584402903
H          -1.62912857094054   -1.33183027307950   -0.06374379277932
H          -1.82128069841152   -0.94681053585257    1.41789715646256
O          -1.68336007024598   -0.31204550011543   -1.64425046545415
H          -2.52066669174591   -0.14794276666792   -2.08063079576317
H          -1.46705690249850    0.52485859970356   -1.15015459724917
O           1.96068922397332   -2.41774884971111   -0.60515659017096
H           1.80477408409514   -1.90096531795124    0.23487824732524
H           1.44056109908033   -3.21769688764568   -0.50432617747734
O          -1.94351536757802    0.53225302562669    2.37009463701191
H          -1.79718070457080    0.40337890763210    3.30923048088085
H          -1.14974545448363    0.99847605857193    2.03881897464487
N           0.98499364687297   -0.47713612444350   -2.08321192144644
H           1.40002941104996   -1.31754737455869   -1.57355882969540
H           1.37420896297322   -0.38298954214361   -3.01468148394219
H          -0.04938666661708   -0.54967511851088   -2.10745652114783
H           1.22005497611493    0.39016000524297   -1.49576358251553
