    26
        -50.47361820  Gyration_radius:  2.42735422919 Dipole_moment: 6.101
 S           0.76954571537998   -0.99863518184840   -1.02791687107399
O           0.51714661011937    0.38820532714202   -1.42493120888389
O           1.83837496062509   -1.07347710219802   -0.04620334545392
O          -0.45328592304762   -1.64312109826142   -0.56140843859969
O           1.20750486711643   -1.77616005745180   -2.30800812795905
H           2.03729054348941   -1.31995305952384   -2.55465702597576
O          -2.12068075204913    0.30437839959453   -1.52891508854874
H          -1.17175431912859    0.51504764441904   -1.65327208173648
H          -2.11292122865773   -0.65477977362956   -1.43087003264002
O           1.26017565793845    0.10247977863316    2.27224277163629
H           1.67555775165253   -0.39411699718051    1.53649756569016
H           1.06843124610307    0.98496202539265    1.87907796126951
O           0.28234923502263    2.02065064634526    0.71897472345415
H          -0.67656372654928    2.01556072703857    0.84125955199907
H           0.44117930257805    1.53936811077447   -0.11418176282290
O          -2.47074409061113    1.25690561294193    0.88533352117544
H          -3.27572789003352    1.77247467430568    0.94453539673449
H          -2.40365553133216    0.94398664497150   -0.06059069080951
O           3.18359091885306   -0.04160624432314   -2.13691153277103
H           2.58445174474758    0.71058368779804   -2.19469662995784
H           3.12644631962232   -0.34041506236757   -1.21584872526334
N          -1.08828650690609   -0.87615430636343    1.86178128484452
H          -1.73506166911476   -0.08164608088610    1.70519524787557
H          -0.88050838938265   -1.30363532164772    0.91378702605549
H          -0.12432206522018   -0.49024301425654    2.20034408676145
H          -1.47853275126776   -1.56065998938058    2.49938242505077
