    26
        -50.46203012  Gyration_radius:  2.57148287312 Dipole_moment: 3.168
 S          -1.64031906486511   -0.62527991558860   -1.76381367555076
O          -0.35409807772010   -1.08838301918788   -2.26129061255610
O          -2.09700223260717   -1.41501498025416   -0.62792753132697
O          -1.64320174140285    0.80034605831981   -1.49915975979166
O          -2.69703734435074   -0.86369398046963   -2.91954673674648
H          -2.80056410025077   -1.81021039505209   -2.92510300909638
O           2.24032161319675    0.72309658764608    0.95599686995518
H           1.80549061576528    1.13080064277069    0.18356781812229
H           2.54380680829417   -0.13028417394907    0.63071346621307
O           1.05897536567562   -0.02021371218208    3.33940311430807
H           1.36771796933650    0.46527146053344    4.10408952691290
H           1.55383394465710    0.33144044409817    2.57445001237177
O           0.95918444565008    1.39760794969714   -1.38106147525473
H           1.40587127277383    0.85018453734191   -2.03002174382453
H           0.00867448679609    1.21038836622742   -1.51413054400847
O           1.36342939189817   -1.61020270192050   -0.37970198636477
H           1.37854601804388   -2.56493666089155   -0.30060781987546
H           0.77851166454956   -1.41585167259877   -1.15578243767680
O          -0.99336852412811    2.17450620539924    0.71071230919102
H          -1.47139868504684    1.89056270238096   -0.08992325129289
H          -0.20204575794449    2.61985510001473    0.39387149627086
N          -0.52372584746640   -0.41905784904413    1.20841043151058
H          -0.62929051299867    0.62714022551357    1.11521876467362
H          -1.30699536563645   -0.87881545165130    0.68067162404303
H           0.35517541886853   -0.73592758302426    0.74647323907643
H          -0.46049176108711   -0.64332818412802    2.20449190071653
