    26
        -50.46145488  Gyration_radius:  2.63868866121 Dipole_moment: 4.994
 S          -1.73582739987130   -0.62983268703732   -1.14848794679228
O          -1.40718963498400   -1.37270499206208    0.05940849427704
O          -0.87186796351783    0.57114959823108   -1.22305870875411
O          -1.67674183538197   -1.43133418552557   -2.33896633548796
O          -3.20885517561747   -0.09348928946142   -1.00812640087621
H          -3.17741620294452    0.60256660085124   -0.33267847568791
O           1.75551755048825    1.49271273442827    2.04473991999668
H           1.98772252750058    1.50773994172710    2.97399701468108
H           0.88035410240979    1.04462062098504    1.99406835671956
O          -0.61965463418961    0.25175828039709    1.97629070815223
H          -1.24106062156871    0.98113578017213    1.86356411174452
H          -0.94330982806449   -0.43344761977476    1.34828772192507
O           3.43899224886207    0.74007771534097    0.10721244980095
H           2.94081392509544    1.09015216623102    0.87882242118789
H           3.63433685830630    1.49260547642428   -0.45307261852495
O           0.52093157075225   -2.79933183897861   -1.86462836351252
H           0.18466630844469   -3.52245806716693   -1.33020845957388
H          -0.28435908590854   -2.33838132047445   -2.19804118719748
O          -2.23584627552750    1.99165080008606    0.46469079269299
H          -2.43813463274657    2.88159770641464    0.17056466461388
H          -1.59142009497331    1.61962149559152   -0.18405106139075
N           1.24742976777944   -0.73087823771078   -0.35835564080570
H           2.19172288380859   -0.27812565930458   -0.33959094861999
H           0.51280830400220   -0.07083286820588   -0.73182709808959
H           1.17536456661330   -1.59375065330735   -0.96064548181241
H           0.96102277124087   -0.97282148787617    0.59009208132835
