    26
        -50.47468851  Gyration_radius:  2.41770772887 Dipole_moment: 2.063
 S          -0.20097277725038    1.31087600564045   -1.10178438972578
O           1.09537407708758    1.00119369655782   -0.47972786485523
O          -0.96010163479035    0.07562137233624   -1.31572220537104
O          -0.94489957115153    2.28628991295598   -0.35690328392292
O           0.11679376102327    1.89579740950544   -2.51675810734708
H           0.70040618408861    1.22280363388956   -2.90381918978544
O           0.63304013277263   -2.06564489274401   -1.09615610520485
H           0.01334186853962   -1.32872273412269   -1.26081272922041
H           1.37289608905582   -1.90203280709113   -1.68649635179487
O           1.04448492398755    0.41828580560785    2.05986614071707
H           1.08368191305105    0.65272511813323    1.09960278254799
H           1.85950601094746    0.74159467044209    2.44657943640153
O           2.05215007756218    0.00566249143576   -2.66507959045456
H           2.91795536783125    0.35535047308315   -2.88443068165216
H           1.85622319381564    0.29139642252752   -1.74358219122910
O          -1.51606478864236    1.47190775864428    2.11942745607385
H          -1.39991969105043    1.96191534292638    1.27883185811990
H          -0.61572200804703    1.22441427539741    2.38795730745046
O           0.09051691604665   -2.12778809242845    1.55315769706641
H           0.41061962090497   -2.28111849593611    0.64148336522750
H           0.57059264867603   -1.34516047943058    1.87395636906600
N          -2.07151698556023   -0.79068505544765    0.91576563631018
H          -1.30616006008747   -1.46169142911095    1.24877789250303
H          -1.78646957366665   -0.48156523400572   -0.04816929471023
H          -2.99013918105378   -1.21820572077728    0.91564681771196
H          -2.02561650409237    0.08678056201440    1.51838922607607
