    26
        -50.46802651  Gyration_radius:  2.46790253518 Dipole_moment: 5.459
 S          -0.13043948407020    1.02546882283152   -0.69579240810917
O           0.51948997995566    1.69468484019633    0.43292161905142
O          -0.19063773152823   -0.42062793584241   -0.43206205339825
O          -1.46311972026223    1.55572349856686   -0.94539323626271
O           0.68996080538891    1.26006462435281   -1.96569717004615
H           1.61263069661290    0.82196888389709   -1.87495766560205
O           1.64458559995015   -2.22492169689197   -1.11974208875663
H           1.97276426506098   -2.56686448983278   -0.28585916807379
H           0.91131605511687   -1.61626685002777   -0.89274402501015
O          -2.39764761531046   -1.85009008011270   -0.34470297203682
H          -2.61475310465657   -2.11459033097514   -1.23992786454567
H          -1.51604920868062   -1.41082500229549   -0.40112000204855
O          -0.77167165727260    0.47710649728933    2.35332270517185
H          -0.26011417288874    1.03860066676357    1.72242136909654
H          -0.35067716284041   -0.38522529238029    2.31251737679612
O           2.83075303364526    0.60237953389028    1.00894008175710
H           1.95421483535795    1.02425733951046    0.84985641370403
H           3.38660096225231    1.28745306747385    1.38404409153581
O           2.91294118008450    0.08865111146857   -1.62633719574510
H           2.61951656040501   -0.84566985069689   -1.66182247842377
H           3.08169857672090    0.26221637769734   -0.67574770224685
N          -2.93436380850713    0.46303342682310    0.83862299881233
H          -2.22151232273084    0.45343284161193    1.61927419146065
H          -2.44213979958485    1.02096018936120    0.05701939429803
H          -3.02294280540387   -0.50937135760647    0.46541914219260
H          -3.82040395681588    0.86845114492932    1.11754662642923
