    26
        -50.46629287  Gyration_radius:  2.50635616089 Dipole_moment: 2.758
 S          -1.37378017812118   -1.62405412218748   -0.14638212962698
O          -0.58426068701473   -2.37126490222487    0.81064229375773
O          -1.67684534686820   -0.27478439242156    0.31701399151532
O          -0.81814768105136   -1.61161551509511   -1.48659451332917
O          -2.76130500990104   -2.38492712220663   -0.24981761943360
H          -2.89228257702607   -2.65123143812948    0.65387337141842
O           1.81810513619827   -1.45731877228173    0.57297420854591
H           0.89115463887997   -1.79920496488039    0.67124108347733
H           2.35335915432978   -2.22662492810034    0.37137912872448
O          -1.98820027707898    2.09040081941487   -0.86905229630842
H          -1.52094769887241    2.61767138965135   -0.21250703338868
H          -2.13787938564736    1.23062450896505   -0.42561785802065
O           1.87011953162869    0.21695664007605    2.78386166150170
H           2.73432543715039    0.63094600048414    2.75208827520131
H           1.87291253371299   -0.48048073865456    2.10456223132032
O           1.81369671655735    1.03609039519877   -0.59284647301493
H           1.23262308705066    1.41247356825719    0.11572258823575
H           1.97193655502268    0.12231909778210   -0.29878879429988
O           0.03432105824532    1.58545086283701    1.28864109614478
H           0.55215536213664    1.22612826063580    2.03198832497504
H          -0.60330101307215    0.88231599324709    1.06224932934483
N          -0.15555923873558    0.77837731024739   -2.28686985881497
H          -0.01967212560616    0.91046757788156   -3.28221538893798
H          -0.45976189208475   -0.21412013617102   -2.06522091105282
H           0.74273648321468    0.93658018709956   -1.72434231776496
H          -0.89550258303838    1.41882443059211   -1.89598241016938
