    26
        -50.45882013  Gyration_radius:  2.54955660356 Dipole_moment: 5.471
 S           0.58121679999001   -0.31600870359093   -0.82841435453753
O          -0.26035036916855   -0.62648903925649    0.45522159268966
O          -0.29344178743589   -0.73249942210267   -1.92655506778037
O           0.78698812530390    1.13357839000490   -0.84667284143867
O           1.81452062994115   -1.05566519914173   -0.76172764464870
O           2.88667771525182    1.07716339097088    0.77732891505333
H           3.41077459304473    0.38725577516139    0.36031857924308
H           2.16259296515631    1.25569358223110    0.14670645587259
O           2.53382179667075   -2.57162537628216    1.29397006865489
H           2.35387861121680   -2.07573902870520    0.46707637359204
H           2.23084898030542   -3.46686033559026    1.13869756035639
O          -1.23102594698507    2.65747884465543   -1.32359233067645
H          -0.94886597525684    3.27271284023740   -2.00290299857501
H          -0.41607934762428    2.14371129391410   -1.06722609385275
O          -2.42371571525121    0.48821493857471   -1.89805210574895
H          -2.07261885701005    1.43479812971577   -1.75117416906608
H          -1.51774931650936   -0.08788106273590   -1.98518090040517
H          -2.81523164777813    0.19032265380899   -0.95821872209873
O           1.35506451744892   -0.39967896452104    2.36234418723384
H           1.97631749168229    0.26756395100096    1.98312163358481
H           0.36862837338950   -0.51691192618106    1.27109455467607
H           1.82480928643001   -1.25234919096835    2.27118646362272
N          -3.08807272159683   -0.22277854754681    0.45423017835722
H          -2.13483478419900   -0.48180460268055    0.71169344209823
H          -3.69019391523311   -1.02411499552016    0.58951156441640
H          -3.39395951177960    0.52191260454687    1.06721565935782
