    26
        -50.46871028  Gyration_radius:  2.45507793338 Dipole_moment: 1.591
 S          -0.26368733636142   -0.95502002939757   -1.62134622942838
O          -1.43235539668215   -0.16523216158139   -1.25806540036915
O           0.88930543515848   -0.09962643151779   -1.87945322072257
O           0.02628128997585   -2.01252533571022   -0.68423672333705
O          -0.62732823593614   -1.64708042245633   -2.99545869459273
H          -1.00178319646129   -0.91637381622203   -3.47444678150820
O           2.71202351103857    0.15817555043097    0.10889508928068
H           2.21183548005551   -0.10643859090658   -0.68758854782509
H           2.65693628201869    1.12077792647809    0.11427931679531
O          -0.93243895249114    0.27701403696308    2.51191578601462
H          -0.90470788894141    1.04115703371093    1.89086058808024
H          -1.66284337015295   -0.27388537866676    2.16127920752419
O           1.36641329877213    2.39887280627159   -1.07758838902230
H           1.38850493155845    3.02950365058855   -1.79805967076461
H           1.16325062799030    1.52504320720680   -1.47456071832606
O          -2.62570784906622   -1.11422415003177    0.94871004081017
H          -2.17734175996493   -0.87108953417301    0.11389328686886
H          -3.53523432049280   -0.82663126901448    0.85226659830330
O          -0.90483003664773    1.91306893513956    0.41935584744444
H          -0.08252393466408    2.27731289039588    0.05698283924855
H          -1.19054166782338    1.23797318979937   -0.22168557578324
N           0.99879431258909   -1.20850866594765    1.62359114401711
H           0.55653129253115   -1.65636425525858    0.77994658076979
H           1.33945866802734   -1.91536349940189    2.26547599825615
H           1.78504986737287   -0.63103495533353    1.23696102087079
H           0.24693892859867   -0.57950074136201    2.08807658739652
