    26
        -50.47190985  Gyration_radius:  2.46937176773 Dipole_moment: 1.438
 S          -1.81134349508328   -0.82646131595379   -0.01286322756987
O          -2.47630564791378   -1.01954890260666   -1.27778554532180
O          -0.67942358377290   -1.70469131543120    0.21496394866981
O          -1.46480544732068    0.56599133744676    0.24836678891881
O          -2.88683621808471   -1.22908422470489    1.09653195789929
H          -3.70952601641961   -1.19454052491942    0.61940385006476
O           0.54581007257150    2.25872106692548    0.01486792288032
H           0.15925413338302    3.13295134351371   -0.05064179254939
H          -0.21294848393446    1.63448949005320    0.06682060059857
O          -0.63041846944978   -0.15631773925130    2.66640367501347
H          -1.02960189679992    0.19004363432315    1.84727699597965
H          -0.80667786255752   -1.09892386465594    2.64185566537248
O           1.74791294651959    0.71985828498632   -1.92069211044387
H           1.44457737919951    1.46284457770676   -1.37026367114926
H           0.94879274548273    0.41717766712737   -2.39581424011874
O           1.79892100572811    0.81916653035614    2.04815505677435
H           1.50952386777209    1.55143398006104    1.47980151478240
H           0.98130013955902    0.50405182898412    2.48877551206927
O          -0.58050262091695   -0.19742164582212   -2.92219357414651
H          -1.30638504412318   -0.44577427852449   -2.31315406797067
H          -0.67114276629015   -0.77084000244064   -3.68519502844621
N           1.84841075617774   -0.94657237697461    0.10305386513064
H           1.92735059088093   -0.34731139217854   -0.77744522883863
H           0.86450769418627   -1.31741286168333    0.13855284095386
H           2.52094851406969   -1.70422441222051    0.10912532848549
H           1.96860768715198   -0.29760488411815    0.94209295291930
