    26
        -50.46676161  Gyration_radius:  2.52439642278 Dipole_moment: 3.922
 S          -1.30874896643032    1.21200068868055    0.51929084082614
O          -0.95160547372280    0.69772369008791   -0.79540835829013
O          -1.99320844972487    0.19062423089502    1.30051129127594
O          -0.19197928081496    1.81307687173291    1.21382388478716
O          -2.35385841697522    2.37316916668997    0.27996412857688
H          -3.06193397290324    1.92073523591581   -0.16581964635858
O           1.68114963519402    0.62962525304534   -1.35273510509366
H           1.99543527366994    1.54225152018796   -1.29099736345386
H           0.71508623381961    0.71850101762563   -1.23572435965181
O          -0.48843825212311   -3.39012002024097   -0.52263575275728
H          -0.33653074683022   -2.73480863866707   -1.25280514725170
H          -1.33561613943431   -3.79723177480343   -0.70920687825959
O           1.74582660314047   -0.05018138383113    1.22120059940189
H           1.94213359186203    0.05555439039010    0.26074806901424
H           1.19214745140297    0.72602086589464    1.42540125912736
O          -0.24106283976515   -1.45460711553155   -2.28332409431526
H          -0.67577613766297   -0.71248551192356   -1.82694133782507
H           0.66340285584111   -1.15503543201951   -2.42297851448622
O           1.48568905412089    3.20463631250223   -0.37934670536690
H           0.82296319740645    2.77620920771668    0.19495772763043
H           1.82855464665679    3.94769161423460    0.11869265405498
N          -0.22991576772522   -1.72401424492879    1.55168433117065
H          -0.23364612754217   -2.17886425258717    2.45861350714535
H          -1.01681435889879   -1.01682234628346    1.49001092531940
H           0.67422694892785   -1.15933964230543    1.42225590626897
H          -0.32748056153093   -2.43430971234105    0.78076813870200
