    26
        -50.46809245  Gyration_radius:  2.53151627949 Dipole_moment: 1.582
 S          -0.30498226641778   -1.65927380919805   -1.32352537554714
O          -1.70915014972954   -1.35932901759911   -1.53687226631726
O           0.56476312677607   -0.66604557557842   -1.94285167204118
O           0.03324256796172   -1.89178471302122    0.06335911977701
O          -0.03996059351787   -3.02178657545510   -2.08759508132511
H          -0.55420081884702   -2.87533088248390   -2.87367503524971
O           2.94574723804148   -0.27384153835506   -0.85847646410564
H           2.07019189041768   -0.50324440127009   -1.24198435756458
H           3.51641726200822   -0.08872141041188   -1.60589047483905
O           1.93053382887807    1.62527737728393    0.73782385395958
H           2.48983471728837    1.03617079508423    0.18758992255396
H           1.19006184164646    1.87657904304056    0.14368803251135
O          -0.18889660867157    1.69867748298654   -0.89929825053463
H          -1.09556102648613    1.51654309966031   -0.61820521548287
H           0.08386965940216    0.91103038408604   -1.40592923810536
O          -2.62719522388668    0.56403697400530   -0.08476105189488
H          -3.54549255290265    0.66101466640856   -0.34249140209459
H          -2.28755729542560   -0.21698160818998   -0.59928871368864
O          -1.74687213947181    1.00734043815350    2.41637418649839
H          -2.15334545613242    0.76972671662990    1.55630857995301
H          -1.62639828692704    1.95913888783282    2.39521052526010
N           0.61689590438954   -0.22203478654297    2.00888550883887
H          -0.29440119514501    0.19466316082061    2.30933896923655
H           0.41759541558328   -0.92119450323168    1.24547067146489
H           1.22694066164621    0.55953922688017    1.57633560608393
H           1.08791948951276   -0.68016942154427    2.78045963265187
