    26
        -50.46991046  Gyration_radius:  2.54527622609 Dipole_moment: 2.427
 S           0.86468365848586    0.16611297671640   -1.07704825308506
O           1.09378301048415    0.50191874838295    0.33087390396735
O           1.54883460188957   -1.07596887320724   -1.42664877250398
O          -0.55078468435838    0.11337442585494   -1.37746481360772
O           1.47184886675787    1.31706657393785   -1.93659987324392
H           2.43896963332724    1.16979619894925   -1.87689812757372
O          -2.55603436233576    1.34052729009540   -0.19531897178548
H          -1.79841949426958    0.90407977196005   -0.64533034728715
H          -3.17507173792559    1.57116537134139   -0.88880947999659
O          -0.53378930398154    2.20635896819760    1.70333884024591
H          -1.15801908692338    2.44912312936001    1.00991305720736
H           0.17310875312159    1.71184521365048    1.25149156531327
O           3.83446820644734    0.16807235501006   -1.72783933615721
H           3.15954623607348   -0.51590651883633   -1.53999367520264
H           4.26982494211637   -0.09397081091945   -2.54235377294536
O          -0.52036671700224   -2.58980118224740   -0.75611170624486
H           0.33352019736136   -2.23366729362063   -1.07974589122269
H          -1.17447363074954   -2.05251015032475   -1.21513991448619
O          -2.20757717737686    0.21503400297739    2.28124341215146
H          -1.61779800569239    0.99602214902336    2.39171290801138
H          -2.67250123552885    0.42563155850621    1.45512209485225
N          -0.24362477436056   -1.36372513506378    1.59406882501127
H          -0.46173691714686   -1.99888752934597    0.78245986408706
H          -1.11943411136918   -0.83346745982466    1.92743315989180
H           0.19410852489881   -1.87092428526481    2.35559163424496
H           0.40693460804019   -0.62729949531601    1.20205366034836
