    26
        -50.45882027  Gyration_radius:  2.54917718076 Dipole_moment: 5.489
 S           0.15421564678619    0.24439159617977   -1.02166878266722
O           1.24754386399606   -0.69560648574528   -0.76698436770123
O          -0.88422380749932   -0.37410321337549   -1.84840434854764
O          -0.55657955489665    0.47844540062908    0.35403691266434
O           0.61267964689549    1.51269573830346   -1.52561502511783
O           2.95780697677484    1.16871914159714    0.03975050900076
H           2.86380865762955    1.80974559198758   -0.67072357496240
H           2.46476027709011    0.38323463826329   -0.26658082715932
O           0.37160984146663    3.80867306031076   -0.21727531714193
H           0.47754755967192    3.03116538263720   -0.80566376060606
H          -0.45780112050968    4.21864550906111   -0.46484885773382
O           0.66024156463569   -3.13641984070184   -0.20145258553958
H           0.96912254372516   -2.19996956566117   -0.34753600472580
H           1.20590338528000   -3.68289050780310   -0.76996107087624
O           0.99959735712827    1.96695048196331    1.64257368631554
H           0.79192153197221    2.81929532464587    1.21037791372917
H           0.07070532290352    1.07018757335690    0.92820556607641
H           1.86398694815503    1.69440186280639    1.25081405861172
O          -1.70209391083179   -2.46539057985382   -0.85563930318881
H          -2.09863405522946   -2.11324078166249    0.06285182888750
H          -1.39840165954516   -1.56282107530212   -1.35973636982686
H          -0.80970408253180   -2.89511615954606   -0.61169709891194
N          -2.43339646954330   -1.42985011386345    1.35213594533314
H          -3.39400672739642   -1.14183945397622    1.48357798302117
H          -1.85595389325732   -0.59793845948386    1.22412250037168
H          -2.12065583292332   -1.91136504473906    2.18534039068671
