    26
        -50.46829691  Gyration_radius:  2.46707991935 Dipole_moment: 4.537
 S           0.08516640547546   -1.79008179940579   -1.04343699736899
O           0.15080260307747   -0.79583825848321   -2.10483389782492
O           1.28178954196959   -1.77100214105265   -0.21645501890588
O          -1.13850739005866   -1.71468640416858   -0.27551520909436
O           0.06751956867811   -3.19925403513409   -1.76115220705785
H           0.89573781391835   -3.17749196377506   -2.22810103120429
O           2.77851840954811    0.37747337754174    0.27904722646174
H           2.26729870029787   -0.40785069743728   -0.00222009243853
H           3.11921963025616    0.16339718894007    1.15011980469656
O           1.03388298294345    2.39945183404059    0.37747742694914
H           1.78184528735833    1.76391985911339    0.31757683713830
H           0.48944580770206    2.08240853409012    1.14038984664563
O          -2.50921227227187    0.46822162797815    0.07298059091683
H          -3.43697652323745    0.23325962448207    0.11780990122552
H          -2.01602981337289   -0.38236059935782   -0.05432940179092
O           0.18866083612431   -1.40564820239485    2.18902125382331
H          -0.64785055005683   -1.85671690845716    2.05022791195237
H           0.68855288969838   -1.57099022121118    1.36739372704220
O          -0.60035635028462    1.18600477949964    2.06310564433914
H          -0.23788807966290    0.29356714306543    2.24201601893508
H          -1.39362378731796    1.03855096941650    1.53106200117553
N          -0.58038477839519    1.63182202899170   -1.46478717486176
H          -0.71060748883246    2.26196140118970   -2.24780235286126
H          -0.22934736548739    0.68871516062206   -1.79399116649420
H           0.14138665588218    2.03240676767383   -0.73411529433519
H          -1.46904274382998    1.45076094437913   -0.97148837727273
