    26
        -50.46115791  Gyration_radius:  2.5393577978 Dipole_moment: 1.546
 S          -0.16978348243426   -1.21103697738678   -1.64544682136182
O          -0.88172609146237    0.04792610154070   -1.57354297396149
O           1.01195059184186   -1.14230568366285   -2.47831677731805
O           0.07309554502802   -1.77467634236172   -0.32504793761732
O          -1.14829530081470   -2.25961942416535   -2.34574636169456
H          -1.11017865778412   -2.01852766136976   -3.26622342921159
O           2.05823861440639    0.57218352856541   -0.84559795261716
H           1.62096924913607   -0.09384701560376   -1.43064945357301
H           2.94357134261245    0.67927732716804   -1.20267980672783
O           1.79385239575485    1.24021367805241    1.84607088213068
H           1.50877991812610    2.13388558888950    1.62947301570746
H           2.06275791040454    0.85297455991791    0.99628356315920
O           0.54115880319792    2.81765805596840   -0.32635907433630
H           0.30278890208332    3.27051786264738   -1.13657534945987
H           0.98985613250500    1.99563805738002   -0.60359789971193
O          -1.54777662671480   -2.79725953744864    1.66611598159473
H          -2.12085413684164   -3.52900478243163    1.43603122425513
H          -0.98226741780297   -2.64401158275335    0.89150527560438
O          -1.81448235536926    1.58816178609245    0.37048929170408
H          -1.10243759080546    2.24563602087870    0.27019003681233
H          -1.70812584577661    1.02609716541815   -0.42450512676818
N          -0.46813230520013   -0.19829501407011    1.73666403686724
H          -1.14583396749668    0.52664265970306    1.34975729120427
H          -0.19738643847224   -0.79965775657720    0.91546618451882
H           0.39197918034989    0.28411556389760    2.07361192934491
H          -0.90171833847059   -0.81268617828982    2.42263025145295
