    26
        -50.47033064  Gyration_radius:  2.4997222132 Dipole_moment: 2.150
 S          -0.45016652792925   -1.63636047473643   -1.07663805115008
O          -1.27198167014626   -2.42682247127496   -0.18987897843454
O          -1.02428202453939   -0.35255657084443   -1.42484457257083
O           0.91983999525980   -1.50608296549262   -0.56986672660877
O          -0.34180720701687   -2.44555585649262   -2.43528235954618
H          -0.34498113324378   -3.35475530976882   -2.15311282545526
O           1.75282981915886    2.54544809634090   -0.88136127031463
H           1.61837466029960    1.78009078169440   -1.48955932538982
H           2.66460796307502    2.81686012781552   -0.98959045238359
O           0.48084853775279    2.04644210051566    1.42020721811596
H           0.96850225114026    2.31079982897411    0.61021358883750
H          -0.44683141524915    1.94597501032966    1.14300070710722
O           1.37811928555178    0.38190665756132   -2.40193818688073
H           0.41794990044746    0.38413058005633   -2.51104339158075
H           1.51930690452545   -0.35383403362616   -1.78316610292543
O          -1.73044638307249   -1.11824070794976    2.07729437880631
H          -1.70554939856207   -1.72996650255242    1.31125117740703
H          -2.07525737766215   -0.28362602000859    1.72141496253970
O          -1.96446651275325    1.15715549533574    0.49728851581060
H          -2.67454466974342    1.68639850768528    0.13078859890572
H          -1.62197472470100    0.60921943288254   -0.24915429436293
N           0.81421551687711   -0.49984335604323    1.86975467728417
H          -0.17082367042020   -0.79403587772288    2.14901175955603
H           1.50722462050004   -0.79775086590108    2.54644540662284
H           0.98441968993661   -0.93400714483656    0.92805342201622
H           0.79687356056162    0.56901153854883    1.75071213466488
