    26
        -50.47030463  Gyration_radius:  2.39698119774 Dipole_moment: 3.501
 S          -0.77628456371357   -0.50088814139337   -1.26165202641109
O          -0.20866327335300    0.08140644766973   -2.44701995691869
O           0.13030819859753   -1.40805945944630   -0.56571521684606
O          -1.35449030553190    0.45976636021598   -0.33432565923536
O          -1.99820899415222   -1.40504620106204   -1.75223832201929
H          -1.92320252944978   -1.42260878598361   -2.70163235068421
O           2.42712173584065   -0.44997697869269   -1.59323372900900
H           1.70812132318529   -0.99078042435543   -1.22396170228291
H           2.03131508968724   -0.04447493682098   -2.37060142928267
O          -1.45180946052804    0.73428964586111    2.46082223849416
H          -1.97581755519491   -0.07762226603885    2.49488779317206
H          -1.60349746172464    1.07825975816007    1.56962743564672
O           0.36144916132519    2.42592046940312   -0.95476549323622
H          -0.36637224833955    1.85352310878617   -0.65910246167926
H           0.47459734289320    2.19894100733125   -1.88222043527683
O          -2.23885298578954   -1.59731138038556    1.20160973398670
H          -1.98889368258915   -0.95252715090003    0.52308219436312
H          -2.46920211860101   -2.39702541242036    0.72754997783367
O           2.39834444662628    1.33725010906539    0.42994448093292
H           2.66121851424047    0.73086608229919   -0.29478955058354
H           1.74301500617334    1.93889205478735    0.01698816376048
N           0.89159705326284   -0.32855910747626    1.75013590192097
H           1.56196032322322    0.40931031716219    1.33311709985868
H           0.56256874293520   -0.89696743259793    0.93447470670522
H           1.36288265313145   -0.91444303907502    2.43069351656386
H           0.04079558786449    0.13786536604609    2.16832509023279
