    26
        -50.46502558  Gyration_radius:  2.64674865922 Dipole_moment: 2.498
 S          -0.62478842244826   -1.03561795902381   -2.05845987442103
O          -0.46566812777576    0.37248575517495   -1.66500726747384
O           0.17369122915692   -1.90356959376912   -1.22387262710820
O          -2.01422240532300   -1.41759496367964   -2.16083461217384
O          -0.03345223754367   -1.13134744958464   -3.53368674614459
H          -0.81339008871979   -1.03788492663548   -4.07230643010949
O           1.66429735562220   -0.94028795239844    0.75263095963548
H           1.26554393084329   -1.51772651991193    0.07043323819702
H           2.08990014048722   -0.24411851147523    0.23127684304346
O           1.69524254398935    2.02560539835459    1.71552542695212
H           2.07379271516439    1.21286736134731    2.06105428742781
H           1.74172705426351    1.94099683376428    0.74631020018626
O           1.88254126303036    1.26294642115864   -0.92726943029102
H           1.00470850755669    0.95107619989712   -1.25955007318912
H           2.29696010555470    1.72255008358692   -1.65811977515552
O          -2.22006243662512   -2.21179713068551    0.34982339276124
H          -1.54528474269238   -2.89595466613473    0.33085724548439
H          -2.33485441620417   -1.95889946809533   -0.59207915947275
O          -0.85786011804262    2.17106019767420    2.55685994053777
H          -0.90542066107755    2.39469325811507    3.48654053996639
H           0.07631830869690    2.29516654826248    2.28108357119026
N          -0.84680270782747    0.00002584622061    0.94142620688738
H          -0.84220073094906    0.36013214490048   -0.03768381170205
H          -1.50191865366463   -0.81797783475427    0.94456357874542
H           0.13123223627525   -0.34776832735357    1.10741407405504
H          -1.09002964174198    0.75093926506350    1.61307030216824
