    26
        -50.47008318  Gyration_radius:  2.50873208593 Dipole_moment: 5.866
 S          -1.06564614890477    0.58008525128321    0.09416334714610
O          -0.82942691119218   -0.05427384196426   -1.20350536506204
O          -0.75214730977873   -0.38069244899602    1.17508609045142
O          -0.29331026106837    1.78638259091435    0.26629774011460
O          -2.56552959074229    0.92240201276468    0.20293866108982
H          -3.02148686258125    0.16468998930066   -0.26955792055944
O           1.63391424167377   -0.74603057514409   -1.54923183116318
H           0.67524414167291   -0.48410799410492   -1.47854589331475
H           1.66099575728826   -1.49388957432077   -2.14795536399535
O           2.24830500585732    2.21457269068082    1.24423955501854
H           2.42565497412670    2.36842876095299    0.29019429426630
H           1.30560986023766    2.42565862555391    1.31923103318576
O           1.85810202375508    2.11290091552537   -1.39342761969181
H           1.98808396989618    1.22389740224422   -1.74255745916671
H           0.95521231527236    2.11873564016420   -1.03051298631854
O          -2.21981103389023   -2.56831805720865    0.96526074418277
H          -1.62466528108093   -1.79606853182837    1.08804689936320
H          -2.74708551511970   -2.62744270407969    1.76381098480764
O          -3.26172509990596   -1.17984031515236   -1.09196472762817
H          -2.43143768648637   -1.00586260873580   -1.56110908288983
H          -3.04315468279633   -1.87330955435243   -0.43467789902985
N           1.84565296363824   -0.36300551411398    1.11443903951203
H           0.79146262314285   -0.41774201367238    1.26351042340492
H           2.00192091670097   -0.62467669101312    0.11953166805754
H           2.11885814509727    0.67265254880940    1.24670337102512
H           2.34640943516178   -0.97514600352251    1.74959231719162
