    26
        -50.46639925  Gyration_radius:  2.4822565695 Dipole_moment: 2.592
 S           0.04516740844816   -0.95800312256374   -1.66911198441162
O           0.65250224837392   -1.66703290152779   -0.55062660476159
O          -1.39221092185352   -0.82235297255750   -1.49896910306824
O           0.70929589054070    0.29794497534461   -1.94160046806076
O           0.27400807043791   -1.86487459651259   -2.94386076659739
H          -0.11740927248199   -2.69478473894004   -2.68993409225445
O           2.48548824314858    0.43936774363355    0.05700178457895
H           1.85939693571300    0.42312931078588   -0.69560657636843
H           2.82440647349834   -0.45783997614477    0.09943899266898
O           1.63965418173270    0.80547661478852    2.59626981051736
H           2.03621486843584    0.72958334246105    1.70033674336186
H           1.63702895348149    1.73797664218745    2.81573435847092
O           0.44964142889959    2.78885562708760   -0.95398455069809
H           0.54026473806240    2.02228065477464   -1.54614463066545
H           1.29268659056466    2.85785219253242   -0.50051565767594
O          -2.57342857356526   -1.94729896322671    0.67318321865594
H          -3.51914994801849   -1.84495763782985    0.55846006104665
H          -2.16985839074459   -1.61041174975080   -0.14957952250393
O          -1.62654685086615    1.36978433105105    0.06201636710701
H          -1.72455228719293    0.73514783321046   -0.66987012205851
H          -0.98888353863087    2.04274802879554   -0.24890713041191
N          -0.46362534489133   -0.48084683899317    1.53293086056123
H          -0.95770742964223    0.33317589573820    1.05352934583125
H           0.03912411719611   -1.01496030203917    0.77781136631429
H           0.22642991339676   -0.11636010772660    2.21690410694227
H          -1.17793747404482   -1.10359931458327    1.91509420348722
