    26
        -50.47229459  Gyration_radius:  2.43681084356 Dipole_moment: 1.574
 S          -1.41508485511900   -0.07944156773911   -1.56909407191673
O          -2.50834292004642    0.71457018310921   -1.05840936112566
O          -0.29747400263326    0.70130694362020   -2.07212818251626
O          -0.95387314843387   -1.09345187856750   -0.62940066477695
O          -2.01576044669255   -0.86834408085604   -2.81174516377471
H          -2.87766238819246   -0.47131919369402   -2.87523133883451
O           2.30863916816016    0.54753331048691    0.78057561713501
H           2.22947803598359   -0.12744383970218    0.06770244608341
H           1.89470840001998    1.34654954787582    0.41091328422647
O          -1.35628592121247    1.41463040342656    1.21505750392577
H          -0.68955269191125    1.99089175481053    0.80443781269634
H          -1.91699669981986    1.11974902042307    0.46793098676469
O           1.62607692473426   -1.16661332255611   -1.16034316390507
H           1.70801281658067   -0.67644650774511   -1.98209592014496
H           0.65937442965316   -1.17025963703424   -0.98594833611212
O          -0.00854709785046   -2.75668608921102    1.19741091855599
H           0.80307086136649   -2.99351181946017    0.73975441988257
H          -0.56746362967043   -2.33938701491079    0.51592030526169
O           0.65373892859562    2.41346756029003   -0.37877510347145
H           0.74450962778655    3.25592931268474   -0.82608450625333
H           0.30658191187565    1.77795492671406   -1.05899444596917
N           0.33314889640792   -0.31645495469930    2.27113098991845
H           0.17249683516004   -1.31263904361650    1.98040510540436
H           1.22059897225704    0.03020792724318    1.78245859521206
H          -0.45534727413398    0.29146119338084    1.89570228912602
H           0.40195524713304   -0.23225314427497    3.27884998460975
