    26
        -50.47235815  Gyration_radius:  2.44513505241 Dipole_moment: 3.386
 S          -0.09525533245698   -0.13410134466833   -1.31281702927686
O          -0.11086495233614    0.98670182180337   -0.34807247686196
O           0.92911940459111   -1.10259629251938   -0.90201635779284
O          -1.40569689363345   -0.71973033312553   -1.42183345947421
O           0.30838661847195    0.44431340935407   -2.68467571683088
H           1.31222436511897    0.41184299316763   -2.69099252275449
O           2.22006810166328    2.23369845839035   -0.57380966206889
H           2.06222953534612    3.11875380117259   -0.90614915217621
H           1.33849346705334    1.82280960372756   -0.45103568026545
O           0.12726087237093    0.64082810368285    2.34026921583357
H           0.24118152206126    0.92292770229353    1.41301290622345
H          -0.76671399366967    0.91719245681967    2.56768964562829
O           2.82362173582300    0.23251777717797   -2.25813044698985
H           2.55410022768210   -0.50859842467968   -1.69455322741685
H           2.89715001738117    1.00352486897676   -1.65899637493980
O          -2.46113215231082   -1.79105689990065    0.74799550638052
H          -2.69448215526135   -0.90547448171132    1.08398747103759
H          -2.23250816393539   -1.60763870317289   -0.18779684539074
O          -2.44001036427509    0.92369813523389    0.99388555263480
H          -3.16365889383672    1.27530889268832    0.47314486884081
H          -1.65185074932015    0.96904014369092    0.41299864811293
N           0.05609672477393   -1.85523728039454    1.43525148788961
H           0.17154139255033   -0.96907634548963    1.99347312866423
H          -0.99336830853178   -1.98772744415472    1.25353510935155
H           0.49508126199289   -1.66491314177118    0.48615951713886
H           0.47898672268470   -2.65700747659319    1.88947587452853
