    26
        -50.46873347  Gyration_radius:  2.50598657224 Dipole_moment: 2.764
 S           0.16118873374564    1.33143419045814   -0.28949507835646
O           0.17130061583432    0.10354823074856   -1.07541879086293
O          -0.99496058917465    2.14857189469314   -0.60716773939931
O           0.28690513466265    1.05871542657647    1.13818084555998
O           1.46110226947979    2.13080271202609   -0.67981296470672
H           1.32856496358529    2.30937811854249   -1.63209611363005
O           0.27829188421954    1.98464627772433   -3.03614112174688
H          -0.48398043644887    2.40666153368635   -2.62055455647555
H           0.22435166367566    1.05677141903354   -2.76305115915830
O          -3.11811784815898    0.75163602383877    0.11101547363595
H          -2.39178518022963    1.37717025150230   -0.11919959311905
H          -3.44106576085007    0.40834876646889   -0.72446894272877
O           1.94400930548768   -2.67131090488512    1.00201350778870
H           2.24972674860694   -1.73985054215130    1.02690345372420
H           2.64525648514749   -3.17190112950397    0.58272909274538
O          -0.45525366982093   -2.30835408538201   -0.12364472846978
H           0.39467806042192   -2.59720066584721    0.27698649816697
H          -0.21932195202245   -1.51359803569226   -0.64549856609127
O           2.68913338089559   -0.07421900745715    0.90788208805490
H           3.03194778443686    0.38582136671080    0.13904238476807
H           1.85646969849915    0.38403474232477    1.12527616808128
N          -1.54319034160471   -0.76916094514249    1.63808924519678
H          -2.34459687599104   -0.29167250354203    1.16070556375699
H          -0.77907523096356   -0.04852473744090    1.65710835237087
H          -1.78134755983895   -1.09805042715070    2.56691150212946
H          -1.17023128360953   -1.55369794015241    0.98370515876695
