    26
        -50.45881981  Gyration_radius:  2.5498013588 Dipole_moment: 5.472
 S          -0.08928297383499    0.87693046682622   -0.58730954232191
O          -0.50098348219124    0.93394187433003   -1.96573243666387
O           0.98516117510157    1.81531961902744   -0.25677233594521
O          -1.20812629112291    1.01522975464571    0.34707903478151
O           0.54590966106631   -0.52761767347340   -0.31103028210357
O          -0.30416247912988   -1.09522586379258   -3.66425083913783
H          -0.38667374640467   -0.27093148886237   -3.13918736355944
H           0.54148391141638   -1.04272755144853   -4.11092510736652
O          -0.69568062901565    1.31704725438031    2.85078888333685
H          -1.21503238109778    2.06835862665987    3.14300460231278
H          -0.98007487151139    1.13911076746896    1.91205412551666
O          -2.93339530093861   -0.30408591639422   -1.18071852680237
H          -2.43527572050564    0.23051699265203   -0.53265904603612
H          -2.79101669897410    0.13649797641038   -2.02341504997912
O          -1.05761437447215   -2.17556443629930   -1.31656490706065
H          -0.10332221627467   -1.24043037639572   -0.69014191311643
H          -1.90238034085720   -1.67292401641256   -1.22307594133079
H          -0.81455332445506   -2.07425031531358   -2.25834392179327
O           1.71108226538890    1.57486876764714    2.07651971887413
H           2.05675351097304    0.57183701199196    2.07875046752170
H           1.45157335482498    1.74733498523484    1.04539321975552
H           0.79942120707967    1.54213250612044    2.53309470812702
N           2.32377089569520   -0.88913355160435    1.89527020991617
H           1.95317969639855   -1.48690580290693    2.62275691160509
H           3.27955438147879   -1.16053730650387    1.70604817814962
H           1.76968477137250   -1.02879228398289    1.04936712330980
