    26
        -50.47138198  Gyration_radius:  2.50340976268 Dipole_moment: 4.239
 S          -0.41947662580201    0.34220579447845    1.43720476353891
O          -0.78906646076303    1.71830659139855    1.18041821483449
O          -1.30719524309067   -0.59432540986533    0.73800023885144
O           0.97320981370114    0.05683596974558    1.13060961361411
O          -0.58544372313912    0.05915936361709    2.96799717471010
H          -1.53068122760784    0.26774006213719    3.10227661412228
O          -3.04655765424832    0.76140423216909    2.33257107254321
H          -2.93684275863599    0.09197412522828    1.64352576821019
H          -2.63205189680759    1.55454082441161    1.96639070828065
O           1.89017740755802   -2.29076128427216    0.37418635067131
H           1.62827454965334   -1.41240407805419    0.73669912246152
H           1.87687352585136   -2.89630350242119    1.11655320140528
O          -0.95074606892377    2.12561795380038   -1.43101061318272
H          -0.91948706822052    1.96145175239234   -0.46385622709586
H          -0.67992523370046    3.03864374842280   -1.54566176060969
O           0.66428331749615    0.36073623164040   -2.63162861048065
H           1.48121606903458    0.58796028713106   -2.13477317866423
H           0.00860395070911    1.02999677238277   -2.33521851001403
O           2.60922887188527    0.82155867214488   -0.85295879011185
H           3.28775431453793    0.14878646168125   -0.76678147266544
H           2.02903764843563    0.71022891770299   -0.07548863679720
N          -0.13894143952705   -1.71705884722968   -1.31566093392514
H          -0.68808165077444   -2.39394042739827   -1.83299831881178
H           0.68837312494282   -2.15172230919139   -0.86125714008858
H           0.19105264079324   -0.89544455825095   -1.95048613906281
H          -0.70358819332930   -1.28518734380531   -0.52865250186124
