    26
        -50.47165510  Gyration_radius:  2.51560001468 Dipole_moment: 0.589
 S           1.48734714880544   -1.34824025678572    0.22693777240659
O           0.31985209449884   -1.98835552652247    0.79529304150903
O           1.74416613962625   -1.69868595178387   -1.15387585905605
O           1.45719050228472    0.10173162314584    0.41564302536640
O           2.72264872450742   -1.87601630745961    1.06354963224208
H           3.45939498696869   -1.55589125730455    0.55417785870089
O          -0.09082164733780   -0.53852385148967   -2.58039216475113
H          -0.07107283852649   -0.90807682604887   -3.46493559358788
H           0.63675421478300   -0.98953374579179   -2.08040003395149
O          -0.59960646643286   -0.90026310054596    3.07848409131910
H          -0.23303899433304   -1.36251206866198    2.29853476223307
H          -0.57924470307287   -1.53309415523864    3.79665063246175
O           0.76967972564055    1.89151478333519   -1.53712641163012
H           1.22579073589904    1.39306955927616   -0.83918504104784
H           0.37983583687120    1.20439411154298   -2.09961264507539
O          -1.83998660473348   -1.08225670638295   -0.54636295982240
H          -1.41433034977172   -0.87368197762507   -1.39652299649903
H          -1.20955113263851   -1.66580703121794   -0.08719838881890
O          -1.10979083114945    3.21530388236302   -0.18764603190687
H          -0.35742081814898    2.86927696005529   -0.72734319284327
H          -1.77351264188261    3.51275016133679   -0.81088303645494
N          -1.00646568532962    0.85022430062803    1.07284274060171
H          -1.53591530113647    0.17568802140754    0.45625859918342
H           0.00838376086398    0.63994572427252    0.90134314531535
H          -1.19769954852559    1.83619821162161    0.79752285885632
H          -1.19258632776218    0.63084143384702    2.05424618526415
