    26
        -50.47455445  Gyration_radius:  2.42615015799 Dipole_moment: 3.608
 S          -0.73887497862165    1.02092465855313    0.87525173865122
O          -0.23340880195913   -0.20456351983110    1.50362770477819
O           0.37583299476860    1.87170684636211    0.48097442695256
O          -1.63537531976597    0.72187469617381   -0.22483842049377
O          -1.58503870348360    1.77640887752318    1.94512355112757
H          -0.92889981211899    1.98637966706849    2.63848030934433
O           0.15872641326921    1.74980279556573   -2.18545755790392
H           0.34393720688832    1.90076167434519   -1.23811905761545
H          -0.79880089534323    1.78647862534120   -2.24626091551513
O           0.97626829347631   -0.78438637630211   -2.46155718042827
H           0.76290575522777    0.17090461922013   -2.56355703074762
H           1.51910734641091   -0.82013079018428   -1.64697256749179
O           0.77577381213033    1.88021912232076    3.12656724639873
H           0.97129968784622    2.09629332349438    2.19961922417433
H           0.86263453333878    0.92413453425584    3.19355968045423
O          -0.38105770266242   -2.77441034885438    0.83495820398765
H          -0.41706701665008   -1.88716464944352    1.25024069646235
H           0.55082334435473   -3.00561132324129    0.80779011607083
O           1.97940880695239   -0.49846772921090    0.03231139164935
H           1.19456073188231   -0.41804956043160    0.60918961447490
H           2.33638281660610    0.39182114175271   -0.02045588012108
N          -1.24231989249124   -1.60026750707795   -1.40050135547663
H          -1.97892874244902   -1.98295554893082   -1.98196155994845
H          -1.53720482176971   -0.69199771212928   -0.95167211038779
H          -0.98370241681093   -2.24694152030947   -0.61456923631087
H          -0.34698262896782   -1.36276399604326   -1.96177103207836
