    26
        -50.47900070  Gyration_radius:  2.40297799912 Dipole_moment: 4.348
 S           1.04157987505064    0.31781305343821   -1.13032539039128
O           0.61297681035712   -1.06533141745973   -0.88344803108090
O          -0.02099110974889    1.05789295735367   -1.80402903894778
O           1.49378976397362    0.95954874288804    0.08401027651143
O           2.26924645501888    0.24851165813919   -2.09092836380430
H           1.89141966922053   -0.17027260657419   -2.88888459629141
O           1.89428208043358   -1.35219139059471    1.41699281660682
H           2.26516069517769   -0.46765670744465    1.29245185198587
H           1.48262395993476   -1.52680652814970    0.54637588553289
O          -0.27854595479919    1.84320255794448    1.87038149874969
H          -1.03797287115380    1.93043895940043    1.26922696417517
H           0.48275791808465    1.70183074799483    1.27059415360994
O           0.43269238812027   -0.83832510576223   -3.64649319703299
H           0.28682433354008   -1.54440410271080   -3.00732421400214
H          -0.02619116374837   -0.06614844912908   -3.27879602643859
O          -1.76382321366222   -1.16232903705994    0.33016990875950
H          -2.11153602197153   -0.27888535603787    0.12332558503331
H          -0.94700535546336   -1.24505549612915   -0.20595677786443
O          -2.02961828158823    1.52790673267691   -0.22696861489460
H          -1.26913106726040    1.40672729929631   -0.85167556805857
H          -2.64716918287851    2.11073234825007   -0.67181351189156
N          -0.41377825199500   -0.69144503767388    2.53676049038298
H          -0.38079589833918    0.37242951837808    2.45865289540912
H          -1.07957407026115   -1.01010869094954    1.77123516130150
H           0.54587572759604   -1.04798440388949    2.25950015858593
H          -0.69309723363069   -1.01009025620074    3.45696571404964
