    26
        -50.47900065  Gyration_radius:  2.40284983538 Dipole_moment: 4.349
 S           0.47254357793944    0.10361009378168    1.49323742582960
O           0.78730801376400   -1.08993095420382    0.69680648883872
O           1.31414207443886    1.22031255970922    1.07465607202613
O          -0.93905380424778    0.41435858400973    1.45120331084491
O           0.81844866166800   -0.23542349936674    2.97653985302408
H           1.77873503519845   -0.41158574422614    2.93595295812636
O          -1.68230469977299   -2.04704639189512    0.63611760615648
H          -1.94970297992998   -1.31649436631660    1.21101141269831
H          -0.70642464849349   -1.97722744175459    0.65632821574397
O           0.74100413111295   -0.57009397955478   -1.92233476445889
H           0.84130205137856    0.39646140907230   -1.91911254891821
H           0.89039722486834   -0.84332185142083   -0.99259865019679
O           0.65429632915240    2.11080109364067   -1.27328452349441
H           1.15386691087083    2.90793549417596   -1.45756999582437
H           0.91373160073979    1.83052831542485   -0.35811830660632
O           3.21649714818626   -0.48265167536599    1.89848661159843
H           2.89567709025903   -1.17633505983935    1.31167067128809
H           2.89199853136921    0.34567476034352    1.51052703885343
O          -1.98556698219857    1.59374541263047   -0.69943046749435
H          -1.74220232403356    1.29054275409758    0.19960556011687
H          -1.16737306895024    1.99175500027831   -1.04262079095179
N          -1.86694103544552   -0.82614584001924   -1.70767376932689
H          -2.08268727230569    0.17280490933577   -1.40005378168095
H          -2.47321011200682   -1.14808074435763   -2.45274946334019
H          -0.84047650662606   -0.82045698880964   -1.98562134577002
H          -1.93400495693601   -1.43373584936820   -0.84097482708196
