    26
        -50.46975633  Gyration_radius:  2.39735054807 Dipole_moment: 4.393
 S           0.36081739459968   -1.69704196408352   -0.03705732736651
O          -0.57106098621082   -0.79631124133806   -0.72254193717328
O           0.87495878565903   -1.04807578797836    1.17835549183734
O          -0.22857420180407   -2.98212773785898    0.21529897248357
O           1.58520702040861   -1.88908733263932   -0.99379837838313
H           1.95034910522894   -0.99299931726067   -1.15498036806474
O           1.77296409545188    1.47208410096598    1.03431033699010
H           1.55366724350826    0.53287007105242    1.19435046525160
H           2.29070986549102    1.46490826361903    0.22266020889675
O          -0.73931206324572    2.26948376879271    0.57277950941171
H          -0.73806062158796    2.14375644766151   -0.38640752624028
H           0.20775737696447    2.16792902896651    0.82696162796219
O           2.38995687258790    0.60188591890089   -1.61742815811302
H           2.90919630206295    0.58274565063104   -2.42335458976588
H           1.51560418584887    0.99445208005049   -1.84271292928448
O          -2.63373926775392   -1.97484394264309    0.69766048381333
H          -1.81057863739615   -2.50362697523531    0.59202048542090
H          -2.86262128919117   -1.71652404944886   -0.19876359303807
O          -0.14736471512459    1.34005715287443   -2.03494032941471
H          -0.62119562410469    1.27174210711054   -2.86484261672164
H          -0.34790786819334    0.49781194939041   -1.53100165343314
N          -1.36877690757982    0.06409885260528    1.87846007143564
H          -0.41695258744510   -0.39088822368026    1.77383881142903
H          -1.29474879992813    0.97791161788981    1.33280595266729
H          -2.03270153187164   -0.62392238949140    1.43602997660413
H          -1.59759314637407    0.23371195114763    2.85229701279304
