    26
        -50.46619321  Gyration_radius:  2.51805604235 Dipole_moment: 4.055
 S          -1.06850321988750   -1.59379435365065   -0.94287138362160
O          -1.85812344891380   -1.80037437403825    0.25395368211072
O          -1.57805722998502   -0.49481683271126   -1.75679505081985
O           0.35414133647646   -1.45541693416648   -0.69960927915007
O          -1.23798303603434   -2.91270349166162   -1.80711740839773
H          -2.15689396681317   -3.11033522393050   -1.66200420773346
O           1.83867541101126    0.00162346322844    1.04955528551528
H           1.55879318314198   -0.17133261400486    1.96691616622565
H           1.32939686014386   -0.63174885797444    0.51182587138079
O           2.35275493184528   -0.14496909641956   -1.89343316171206
H           1.73487965729101   -0.85137443963473   -1.62102706641963
H           2.84322109707706    0.06487920463931   -1.09139374778597
O          -1.71218135058402    0.37113086810377    1.64111338988294
H          -1.74308188862487   -0.47178838214129    1.11615659643896
H          -2.61744959127117    0.53814980287922    1.90906112673830
O           0.40194648097337   -0.07634701575320    3.37163811081867
H           0.46508471916202    0.73564642212352    3.87732396943395
H          -0.40987455775952   -0.00750131714103    2.83717114693709
O           0.21541802274081    2.05017356632165    0.61414292503144
H           0.94786542617393    1.41887931259237    0.82841976308343
H          -0.57654306597519    1.61707996641487    0.97578520765750
N           0.18432125425256    1.41018613948646   -1.92148701223415
H          -0.56777043429916    0.65775836410801   -1.93991142063623
H           0.17189479953228    1.81948635244847   -0.93249446942357
H           1.10892967819616    0.92353133372230   -2.05331469362617
H           0.01913893191587    2.11397813679577   -2.63160436966069
