    26
        -50.46401287  Gyration_radius:  2.52445282789 Dipole_moment: 1.189
 S           1.34546517954512   -0.20746121534933   -1.37560681113435
O           0.51329330995135   -1.38279289897392   -1.16480598946479
O           0.88749784703796    0.64558901786204   -2.44464616393743
O           1.58875490515218    0.48923549682558   -0.11881789844651
O           2.76789666664481   -0.74467424112591   -1.84909144654731
H           2.86202268913248   -0.30327453193832   -2.68658984580800
O          -1.71147253861864    2.39653557964979    1.49636232670629
H          -1.30064120032751    3.26146134615595    1.53792901035294
H          -1.65848925329203    2.11792663368345    0.55746382818184
O          -1.19912659888395    1.33992293449639   -0.90911367035648
H          -1.74508747964430    0.58914294640937   -1.19899270219953
H          -0.40690385476616    1.29956194462035   -1.46918773429322
O          -2.00676349499903   -1.06602009552551   -1.94118984539451
H          -2.09871917378054   -0.99113392524435   -2.89197534154671
H          -1.05743882305382   -1.24987081373683   -1.77326017502358
O           2.46270309285864   -0.33616835993094    2.35984687916289
H           2.36792396593905   -0.01524643794220    1.44707900803439
H           3.18820607899056   -0.96107803158654    2.35079812327169
O          -1.26869390795567   -2.00356667573742    0.76758037274197
H          -0.52549670996604   -2.00560801500449    0.13477295055321
H          -2.04868379988124   -1.86699387941798    0.22020295816622
N          -0.20686596778129    0.20235781365097    1.82088593960241
H           0.41723781749563    0.03111968429554    2.61058873233609
H          -0.82995796287209    1.02986801662497    1.94758579160377
H           0.41623670831143    0.39388190294736    0.99417278928985
H          -0.75289751522117   -0.66271419570818    1.57800889414218
