    26
        -50.47523157  Gyration_radius:  2.42164927377 Dipole_moment: 2.919
 S           0.17034437749956   -0.42908792482998   -1.80287847936184
O          -0.82761990582391   -1.45564275851618   -2.02460757564262
O          -0.43500330969922    0.83857447296507   -1.41615807400816
O           1.22044359961230   -0.83433570347223   -0.88762731805901
O           0.88062122852046   -0.18223793052188   -3.19098110526760
H           0.12408404271215   -0.05465183006548   -3.75136233671573
O           3.14514953940971    0.87581987676975   -0.24945313931300
H           3.75344551749488    0.39105540967417    0.31042724003558
H           2.50723554250839    0.21657260834074   -0.59292686316623
O           0.39548320530827   -1.47636788130259    1.56038542851065
H           0.84080182845738   -1.31990322826405    0.70255774019011
H          -0.44655888066778   -1.89245721107442    1.31060467678235
O           0.96405601462157    2.37254917838389    0.28252992282385
H           0.45138356498146    1.97739557693142   -0.45106934945991
H           1.86924571167891    2.02756338564880    0.15871055661622
O          -1.92051062253799   -2.12472655824925    0.22606345704437
H          -2.44789297967628   -2.91403521223503    0.09323580483226
H          -1.50583499416675   -1.92265758701436   -0.65291783307417
O          -2.40798168439940    0.58417262538154    0.37962892333739
H          -2.49072675955728   -0.38368919886602    0.39699350221833
H          -1.82943009346762    0.77068786565344   -0.38759301103341
N          -0.40046374438376    0.99824071305187    2.03655858886759
H          -1.32526356120595    0.93865439032228    1.51861607191264
H           0.00133596821030    0.01751104977392    2.00942097429430
H           0.22291580933798    1.63480079647444    1.44035945062174
H          -0.50925944471276    1.34619507470526    2.98148274713033
