    26
        -50.47334106  Gyration_radius:  2.42310521449 Dipole_moment: 3.238
 S           0.84315651176130   -0.99859901205538   -0.12088433570007
O           1.03589156122188   -0.21373118859220    1.09620076469888
O          -0.18659963100391   -2.01830055190942    0.08701596382586
O           0.54310858935852   -0.16457974365919   -1.26688401667018
O           2.19122146445622   -1.72267826169310   -0.42502109651506
H           2.30885311941165   -2.28742599503434    0.36621240078902
O           2.29043658383470    2.10438457257250    0.44446514037965
H           3.07730598097173    1.84607283732679   -0.03718591442607
H           1.88817662239319    1.27852560495129    0.77011978133803
O           1.64108659324120   -2.77991395841881    1.91916602057722
H           1.61098858772747   -1.89593164797721    2.30365546565602
H           0.78386303023606   -2.89225360132893    1.48187078772242
O          -1.23888666484344    1.22411582662997    1.33727389551606
H          -0.98029949969926    1.87528991851611    0.64311930816914
H          -0.41265534369930    0.73258330828638    1.50342460387654
O          -0.15201292614517    2.40235799981631   -0.79004205066511
H           0.63768081026420    2.79803504069715   -0.39183653214259
H           0.15821328129288    1.51398703642458   -1.05147073173104
O          -1.77574396460876    0.49335331372311   -2.48505265715851
H          -1.68335222022499    1.44650068085636   -2.38030581344744
H          -0.87835487472166    0.13955287080575   -2.34463583390919
N          -2.37989801405142   -0.58948492523458   -0.13123783042704
H          -1.60914479015042   -1.30818724219638   -0.07091040045436
H          -3.28475521721204   -0.98503777731604    0.09889681687288
H          -2.07609186488252    0.18937334828498    0.55038524300597
H          -2.35218771492839   -0.18800846347459   -1.10633897917956
