    26
        -50.45882037  Gyration_radius:  2.54936619207 Dipole_moment: 5.483
 S          -1.01552076216444   -0.05224329341456   -0.30519884284787
O          -0.53595546373076   -1.39861222159026   -0.62342310614347
O          -1.21415700703144    0.73278195623969   -1.52527976288061
O          -2.15903531731719   -0.05765013477571    0.56945726745962
O           0.16614885706783    0.67798547658192    0.41811048840447
O          -1.09701691505174   -2.40276046690112    1.76972590923950
H          -2.00042381195695   -2.09284703036231    1.88085260960341
H          -0.87449117136046   -2.19436130574852    0.84184294951084
O           1.27180420723960   -1.66068008649124   -2.43566719824513
H           0.96300291755832   -2.35072123679668   -3.02567759658568
H           0.62266774884790   -1.63968989728865   -1.67932747606043
O          -2.15000358843451    0.90944202051500    3.04057058522940
H          -2.27917813263524    0.56104060178615    2.13291386979607
H          -2.42060291617292    1.82781443230331    3.01425674547928
O           0.81982039752364    0.79681570830235   -2.89931248795867
H          -0.11286643974022    0.81609609938171   -2.36093004814843
H           1.49505696374790    1.27925115795128   -2.23854761179788
H           1.07580436250267   -0.19014911467281   -2.86635586320327
O           0.22859901894577   -0.31179466557890    2.72371628661948
H          -0.12883108767142   -1.21254443496213    2.53417516655448
H           0.24152453066297    0.27603443947980    1.36980648635992
H          -0.52244727666829    0.17166409706976    3.12140571574123
N           2.30604879458732    1.81078638838155   -1.09840870685587
H           2.44619588881905    2.81184573449490   -1.06309323494258
H           3.19632292509395    1.35178596379369   -0.95480754416691
H           1.67753329734145    1.54070982229320   -0.34080457016976
