    26
        -50.46441372  Gyration_radius:  2.69140496126 Dipole_moment: 2.804
 S           0.76212680806941    0.66022071601928    2.14748453866785
O           1.12925928733188   -0.60401626233767    2.75044472750785
O           1.82442097823048    1.21368419898280    1.32468930071809
O          -0.50550827630684    0.59562873415863    1.42893158393584
O           0.52402492189118    1.68586240372431    3.33135596270520
H           1.36335322288445    1.67099786569069    3.77939655122593
O          -0.67982092879165    2.17071835938314   -0.74628062895433
H           0.17605508858807    1.96670955664402   -1.14270786527862
H          -0.66330345127710    1.75450946294522    0.13632549856157
O          -1.98967471108623   -1.55588602882438   -2.20879976156462
H          -1.86688250678431   -1.67504053022912   -3.15145697387318
H          -2.36481911754789   -0.64584636359865   -2.09695385602846
O          -2.75678404281884    0.94695782128522   -1.86753184989605
H          -1.98226783253425    1.45794444517274   -1.52594404320503
H          -3.46321470154055    1.10390756581452   -1.23933438441498
O           1.38603934544577   -2.68494838149956    1.17825978468265
H           1.05980425027616   -3.43204132854829    1.68255773552552
H           1.39070668958514   -1.92207473278504    1.80704271801690
O           1.80452070537816    0.83921955952277   -1.22971931439348
H           1.86557479997684    1.02865979520877   -0.25445406026901
H           2.69968574532939    0.90037488119697   -1.56519508696228
N           0.05189149551750   -1.11400492581171   -0.52548765277335
H          -0.33913748547395   -0.50355721811682    0.23130857512993
H          -0.70967475526436   -1.41701544001571   -1.17793999486637
H           0.75368640799742   -0.53422051311009   -1.02137101077853
H           0.52993805294337   -1.90674364084082   -0.04462050343677
