    26
        -50.46959501  Gyration_radius:  2.4662057541 Dipole_moment: 1.538
 S           1.04318782847321    0.65554539272287    1.76997063215147
O           1.49256249789128   -0.72385490639608    1.61527592377408
O           1.44133192162392    1.48198761307016    0.65143266284508
O          -0.37446055670147    0.73652736577523    2.07266390718847
O           1.79336187976676    1.23000274687613    3.04221130325912
H           2.67863856751221    1.32920610299882    2.70877350424032
O          -2.01230028341652   -1.06411607611621   -0.98455784330087
H          -1.30346091601067   -0.98067516322673   -1.64534529342577
H          -1.61119456361965   -1.53910787730577   -0.22387036106477
O           0.14516096278374    2.07835706733692   -1.58536647866980
H           0.23170364481553    1.23384131008551   -2.06352987942394
H           0.77162011921265    2.00310849968634   -0.83657233641969
O           0.24435403373716   -0.52917706168698   -2.48201793011046
H           0.88572392272881   -0.94958231098353   -1.85134100805037
H           0.53906239060780   -0.76654723203734   -3.36210063528931
O          -0.80671833352081   -1.99460998573684    1.23840904085837
H          -1.35646606713880   -1.68849399524835    1.96260600937901
H           0.06394761699435   -1.57467243175462    1.39988255275705
O           1.82682487624015   -1.76555338922094   -0.78238002673923
H           1.83417430839319   -1.28520097461357    0.07408819871987
H           1.46274969602571   -2.62992300207003   -0.57500584495736
N          -1.82887235202312    1.36980832130755   -0.02315510499918
H          -1.13255217765509    1.81051404750103   -0.70460271653080
H          -2.07927202495443    0.41103026984344   -0.41935515924382
H          -1.30423580035930    1.20062973057613    0.87644199665817
H          -2.64487117137636    1.95095592863523    0.12744488639604
