    26
        -50.46380727  Gyration_radius:  2.40812033267 Dipole_moment: 6.099
 S          -0.77376501304050    0.08942935790430    1.35712303101575
O           0.49893596010777    0.82090402118133    1.39672702301110
O          -1.23529612202053   -0.07656070141417   -0.01217114794210
O          -0.62960410362829   -1.20850382590523    2.02019456139383
O          -1.82590520368438    0.90174093375355    2.13309699016202
H          -2.11455902046732    1.61530770229550    1.48433062348760
O           2.40324121974437   -0.38611028118938    0.16802447448499
H           1.69224049650226    0.12093658531960    0.65746821114318
H           3.23767586407042   -0.03644215321523    0.48471964188559
O           0.06023838876560    2.52041536995043   -0.62833099099655
H           0.32360247889172    2.00114742153040    0.15293651434351
H           0.28050630643068    1.94676392231479   -1.38321068671372
O          -2.33187089929460    2.75145445383244    0.42111992195874
H          -1.51162021672327    2.66288758329257   -0.13542417308295
H          -2.27419452910293    3.61673296371993    0.83329426867563
O           1.07456589785900    0.46854155678935   -2.22535792281161
H           0.43674187799864   -0.24716196702347   -2.31654616077936
H           1.67103414685815    0.19928189978820   -1.51367108327827
O          -0.65045909778855   -1.88106594028436   -1.71331895727248
H          -0.93344497908961   -1.14029494896443   -1.10223738441062
H          -1.45997803552960   -2.23268708515544   -2.08624030151346
N           0.82923021196715   -2.54041791166639    0.39876017687702
H           0.28818320053158   -2.51974413146173   -0.49903089621571
H           1.11097376204410   -3.47773167901799    0.66358234056991
H           1.64208347243594   -1.89733648883592    0.29280181890587
H           0.19144393617050   -2.07148667755010    1.15136007709280
