    26
        -50.45882031  Gyration_radius:  2.54939178438 Dipole_moment: 5.478
 S           0.97649650291581    0.06472720063120   -0.40947714572572
O           2.20248878125087    0.14815007157316    0.34061975996734
O          -0.18682614925435    0.64448806207072    0.46404817138160
O           0.96390959727939    0.90639862929188   -1.60773067654195
O           0.60121074455632   -1.31252989758366   -0.73557358288802
O           1.51398281567244   -2.33319750820791    1.53932298558853
H           2.38897028157064   -1.93568859897104    1.56941803375184
H           1.17294324433404   -2.11795584618015    0.64983090954407
O          -1.35106917996327   -1.70123460047945   -2.36610427011565
H          -1.03753995287809   -2.33383617847308   -3.01502857512236
H          -0.63149088603995   -1.63802969222981   -1.67903897809524
O           2.36268164986454    1.02699615179367    2.83936088206689
H           2.53200823096193    1.96959235703974    2.82492531757915
H           2.42816810475033    0.72397520281091    1.90883657766763
O          -1.20123714507234    0.80463199717913   -2.76120993453219
H          -0.22301181794394    0.90293129343613   -2.32110412376713
H          -1.35145639188782   -0.20440013095835   -2.74727156053590
H          -1.84718668752938    1.19000043102343   -2.01332148668589
O           0.09801477783446   -0.42337563050263    2.71716645328863
H           0.83601041148715    0.12162821435716    3.05552035330847
H          -0.11910828929822    0.20497541567168    1.39978122279171
H           0.52050433533896   -1.27554418642748    2.45198694929977
N          -2.58099908164600    1.59300867517213   -0.77243256279859
H          -1.85014253734467    1.36603258015937   -0.09691708445108
H          -3.39865044685749    1.03673607536000   -0.55813509193725
H          -2.81867092213693    2.57151988246533   -0.67747256301256
