    26
        -50.46973881  Gyration_radius:  2.48491758826 Dipole_moment: 1.630
 S          -1.33488693346073   -0.11940820973341    0.88789677621849
O          -1.19194649056642   -0.13891106764589   -0.56909575646476
O          -0.11226434459087   -0.62819958533062    1.52052867532103
O          -1.71007289466623    1.17788117539213    1.37964010829645
O          -2.47785526132424   -1.13191073667968    1.24559867380985
H          -2.10634065225512   -2.00174184534639    1.02813145318986
O           1.18690516594348    1.67611184043162    1.57665362873656
H           0.80647495170837    0.78519568992508    1.72132105629294
H           0.49169725800486    2.28906526458136    1.83345092713788
O           2.45719048245550   -0.62321254575024   -1.88947506061794
H           3.06834629494763   -0.94570731525375   -1.22489846477682
H           1.70275017796958   -1.26033782797686   -1.89993068895385
O          -0.59775121506507   -3.08982343249532    0.92731269964685
H          -0.22555895223890   -2.21803722346302    1.20197428623309
H          -0.46500170820801   -3.68915782149424    1.66431625689057
O           0.27704878301685   -2.13134755194000   -1.60392933801817
H          -0.35009473283076   -1.42413573615923   -1.35878439955534
H           0.15630777445736   -2.80405929683544   -0.92393821498330
O          -0.99876407038955    3.16607805777210   -0.29325418460176
H          -1.71961654256527    3.79492100448815   -0.34557286080779
H          -1.31645734369606    2.45738322271323    0.29902660067056
N           0.91235052790922    1.38736130936196   -1.05881889161339
H           1.62871183136988    0.75302755807192   -1.49223954019595
H           0.01163335321278    0.84705228235734   -0.98390671936562
H           1.17109103047250    1.62856944473171   -0.06461556457532
H           0.73610351039563    2.24334333627967   -1.57739146791767
