    26
        -50.46391698  Gyration_radius:  2.54454840544 Dipole_moment: 1.798
 S           0.15361240780847   -1.46340552497543   -1.19328217817099
O           1.53932877626070   -1.11927829508301   -1.40860466630005
O          -0.17616967570941   -1.73839390120729    0.19355911021211
O          -0.76185369895674   -0.47478495023020   -1.76467207922784
O          -0.09760251084200   -2.81233188902718   -1.98907844424721
H           0.57270255211582   -2.77019442386847   -2.66348965542602
O           2.18535820095992    0.69463820437003    0.40863225213986
H           2.14782008383560    0.05196594990925   -0.33218789197097
H           2.15520014127657    0.13559983899831    1.21181534705744
O           1.41487320491298   -1.08718160295020    2.25780752839384
H           0.76851144651293   -0.87620475834593    2.93493208028495
H           0.91346091339733   -1.49859962191349    1.52770655609620
O           1.54363279485481    3.43801881053967   -0.13734350621536
H           2.16783679732574    4.13372401140549   -0.34562293150310
H           2.06592200487045    2.64328882856212    0.03905295047870
O          -1.85597759041287   -0.13925689358119    1.56475466433205
H          -2.63301704108303   -0.22351534741926    0.98250746946369
H          -1.27695771931524   -0.86229923997025    1.25589498445753
O          -3.21846565859699   -0.71026627583043   -0.70668074201370
H          -2.37101522464217   -0.62810773770369   -1.18862036899775
H          -3.53597781931344   -1.59761770973458   -0.87928707344729
N          -0.35630569059987    1.40862384484074    0.04991492556084
H          -0.42769239036413    2.41612874137723   -0.08090363974299
H          -0.56662761872604    0.87482182766090   -0.82337836034919
H           0.65136927461186    1.18707061022621    0.29307025055943
H          -1.00196597017424    1.01755753394995    0.79350341857559
