    26
        -50.46042711  Gyration_radius:  2.6139508878 Dipole_moment: 1.212
 S           0.29465375238865   -0.15793004714016    2.46721055692529
O           0.75464287606973    1.21066543786311    2.30377238407318
O          -1.15451146193092   -0.25991272658101    2.43776688792955
O           0.94531023219744   -1.08532466016921    1.55957192536697
O           0.73640275259162   -0.59838082443380    3.92707072393181
H           0.26636729325625    0.05755920002534    4.42904270902562
O           1.80501811625441    0.76393865913025   -2.14846510453632
H           0.96926797388880    0.96043269588099   -2.58838053922150
H           1.79424964705478    1.34115259765899   -1.35914992437848
O           1.09485428786949    2.25803830226768   -0.02106398545724
H           0.97938084758601    1.81249051182795    0.86167772012251
H           1.35663059790189    3.15705701781717    0.18251525946934
O          -1.37880216667213   -1.68785605256816   -1.92519871740809
H          -1.86331821399453   -1.47583838347819   -1.10266841047087
H          -1.39635819024539   -0.86104498062327   -2.42188971195029
O          -2.45377935784404   -0.47507019607936    0.22800740473468
H          -3.36826262153823   -0.48202408398060    0.51411576031190
H          -1.91776905075321   -0.41887089438819    1.06502557088251
O          -0.98474217442874    1.13808250514648   -1.54052885772661
H          -1.60070051866363    0.73748933022885   -0.90911951050994
H          -0.38813408859930    1.67115659208470   -0.99423014909784
N           1.11345852068318   -1.53684606844902   -1.00068453382550
H           1.71835176154898   -2.33618382247713   -1.15285467380312
H           0.14145808786293   -1.71611725343593   -1.37777520261983
H           1.03863145021133   -1.34495438797892    0.03913708575363
H           1.49769964730438   -0.67170846814859   -1.47290467752104
