    26
        -50.47334127  Gyration_radius:  2.42284150871 Dipole_moment: 3.256
 S          -0.38298003352404   -0.89448451053660   -0.87986257939232
O           0.89606987185913   -0.26710904616246   -1.20384552095652
O          -0.18230995608453   -2.02035026720829    0.03409617797320
O          -1.33980625897336    0.05639803590596   -0.35159452319921
O          -0.97864839218246   -1.44800327194200   -2.21145659502710
H          -0.30309989618513   -2.10094411880275   -2.48741363134939
O           0.40895879478747    2.21679931387164   -2.18634601684466
H           0.66850747253948    1.32382128067797   -1.89473669987903
H          -0.21805167562218    2.09200937344339   -2.89987950684694
O          -0.39914090161158    2.46366904209579    0.43476033576388
H          -0.82839713161951    1.64929261888420    0.10853957609544
H          -0.06608448222809    2.87230699862549   -0.37804034032805
O           1.24029001107586   -2.85515227811077   -2.10182432499553
H           1.74840793556691   -2.03597791893365   -2.06963385929703
H           0.91846153534949   -2.98584315667892   -1.19741897891430
O          -2.10650641367348    0.66667111004864    2.16585724822849
H          -2.15019068351377    0.37755998640234    1.23605884277764
H          -1.87567880764220    1.60094348103825    2.12212729511477
O           1.66620311054081    0.91769971251313    1.09867459166917
H           1.63894107797466    0.48352127753631    0.22537446432696
H           1.04550084539039    1.67698384009229    0.99452136045258
N           0.12414956201653   -0.77453659346805    2.32628201981059
H          -0.03160144882028   -1.42378453084493    1.50867763519592
H           0.41959167099581   -1.27620360010045    3.15649863183332
H           0.86272203722048   -0.07136264510292    1.97510253993049
H          -0.77530784363344   -0.24392415324357    2.47548184786040
