    26
        -50.47052967  Gyration_radius:  2.48020355286 Dipole_moment: 1.334
 S           0.82547355073588   -0.16258001691328   -1.83764193910745
O          -0.42295722400669    0.28093625479128   -2.42411072044076
O           1.59042725639289    0.93312423459735   -1.25472162529754
O           0.65892760181443   -1.25628829206634   -0.89721966574668
O           1.68943313971105   -0.74343374790761   -3.03244142519997
H           1.46536111792260   -0.17527674450861   -3.76262581643458
O          -1.22995833986202    1.57859825803855    1.14930056167319
H          -1.62118742490753    0.74441163356895    0.83093307182973
H          -1.14426487853791    2.13587785092869    0.34336316338626
O          -0.63064626227960    2.64553199265859   -1.23110272228851
H          -0.70137805475013    1.82542964050380   -1.75920364797907
H           0.31347716958632    2.82507932617553   -1.21063824403441
O          -1.81722207961400   -0.74890565459593   -0.18403556707010
H          -2.24409500058971   -0.44777886583411   -0.99058905496578
H          -0.90919511715394   -0.99638216346072   -0.46931635475260
O          -1.40615790440802   -2.21087950490510    2.13899799135903
H          -1.72606105010106   -1.68358194976089    1.39036032386811
H          -1.72940894963230   -3.10281116977230    2.00260774808937
O           1.23849547451129   -1.76177496895311    1.69836470199078
H           1.18231808419335   -1.85076247292164    0.73144915595089
H           0.34179299143915   -1.98143214533580    2.02438798042256
N           1.27388177553991    0.84440990803383    1.37041371738049
H           1.31769072265038   -0.18612986953169    1.64678965731116
H           1.53154546315947    0.90277783664087    0.35161203000357
H           0.25942298842373    1.18231211090595    1.43600258335471
H           1.89428493977618    1.40952850963360    1.93906409669300
