    26
        -50.46548507  Gyration_radius:  2.59483506526 Dipole_moment: 1.960
 S           0.33822555324528   -1.15903427496423   -1.89703980242420
O          -1.09535379630494   -1.36569687509909   -1.89999449690880
O           0.73437532453336    0.06762923087938   -2.56113301262296
O           0.90197320938026   -1.28186622375943   -0.55578338391026
O           0.98587804699756   -2.34050833497673   -2.73424717406977
H           0.72407100560910   -2.10193560185597   -3.61659727765589
O           2.33789573267649    0.61432437244096    0.73325906748216
H           2.02099184813288   -0.18770496831987    0.28134871586326
H           2.05120378333200    1.33854871249775    0.15675173808356
O           0.78973063945842    0.88320509517631    2.86915274940311
H           1.42451496324879    0.74313068559488    2.12080124530385
H           1.32374793952456    1.15960381902836    3.61384151032375
O           0.85347385649171    2.15654882137703   -1.03469852386626
H           0.91397042855253    2.90881983233370   -1.62549040684131
H           0.79464107794758    1.35795837714977   -1.62271252678905
O          -2.84997066143067   -2.03736628347859   -0.06282060760919
H          -3.68056992941264   -1.65788872021001   -0.35469937937308
H          -2.22437858466042   -1.91448974281191   -0.81496799818785
O          -0.94064475347455    1.97484824410398    1.00669720216624
H          -0.35581038149348    2.13240435292862    0.23991053872295
H          -0.36202923424957    1.97730743910332    1.78648225919709
N          -0.95013209433760   -0.66438465136614    1.21379495403846
H          -1.80356956881597   -1.20916185796202    0.95861863001357
H          -0.64683930417395   -0.80427925444581    2.17508343815922
H          -0.18686007099184   -0.96757059105824    0.55203604659762
H          -1.09853501978508    0.37755838769038    1.07240647490961
