    26
        -50.45882057  Gyration_radius:  2.54906509654 Dipole_moment: 5.488
 S           0.69516043114210   -0.38257579533030    0.70711654388699
O           0.34033395074113    0.16517897801262   -0.71655629627318
O          -0.57897799489652   -0.60623709808315    1.39300765074155
O           1.46954650142432   -1.58702705992671    0.55815550281777
O           1.43582023675549    0.71777295679905    1.32762562256691
O          -1.97822801402990    1.44349806389318    2.07177376712985
H          -1.53099497224385    0.60004830120088    1.78452421102290
H          -2.22486947498301    1.30902209101237    2.98864921417260
O          -0.97974522113455   -3.00831018412258    0.33430249063705
H          -0.12450327172061   -3.41593121147373    0.49845173508924
H          -0.95484420525296   -2.16798590481305    0.83141912736203
O           2.04533939776731   -2.70931060319245   -1.77631403980494
H           2.88345805938104   -2.36493216279890   -2.08661399451095
H           1.92811834977696   -2.36244900271400   -0.86641634575393
O          -0.49034663422179   -1.83027301101558   -1.99216137347168
H          -0.03338674221348   -0.62786401128520   -1.26832636215761
H           0.36736113764193   -2.25344251170599   -2.19532386124444
H          -0.86183628585381   -2.36639761681567   -1.25082740964804
O           0.09067990440876    2.76964698468896    1.42471236646374
H           0.74518864168376    1.91404881388546    1.42538866214913
H          -0.07198662083713    2.95384318345912    0.39297901164715
H          -0.78756547266462    2.37847323878057    1.76625275823441
N          -0.31401476766481    2.92195919820800   -1.08414432766323
H          -0.09014903958437    1.93858388439736   -1.24155392451042
H           0.29321258020025    3.48969033877796   -1.66028434319339
H          -1.27277046362453    3.08097015017786   -1.36583638571675
