    26
        -50.47508727  Gyration_radius:  2.41602295855 Dipole_moment: 4.309
 S           0.47953039853501    0.60533008225355   -1.58470707468965
O           1.35770779085632   -0.45860883157623   -1.06752824959341
O          -0.86068160267035    0.45515093692671   -1.01637350635443
O           1.02183274861819    1.91683495752116   -1.32664439024782
O           0.36146247307630    0.40283356409711   -3.11850104723666
H           0.11525641838557   -0.54588873568001   -3.18485015814772
O           1.14157406490552    2.43284719529309    1.21577266143045
H           1.65271218279985    3.23486888095502    1.33626912784613
H           1.07832024090899    2.29978745867811    0.23251920913250
O          -0.96433810421843   -1.04313050514092    2.14678559432423
H          -1.34952504525643   -0.14031170709940    2.04340244682634
H          -1.27057505524784   -1.53716930806883    1.36203074582919
O          -1.77799153801789   -1.86905213979357   -0.34899255378570
H          -2.73222556927297   -1.83283832513376   -0.43758391782393
H          -1.44652165002538   -0.97429209321211   -0.62053332341817
O          -0.03902987754251   -2.14994626880358   -2.57194137114189
H          -0.77065972320960   -2.34184873074013   -1.96620234365984
H           0.69489894251036   -1.88683030707627   -1.99390242068376
O          -1.52305268487315    1.44415554148343    1.39112056497533
H          -1.42295373981611    1.19880293588975    0.45167353305572
H          -0.77327003658490    2.02380764475232    1.57206379948536
N           1.42903628211726   -0.25422324341040    1.51965885194959
H           2.21581014819079   -0.68618743289951    1.99129332851391
H           1.47528275493245   -0.41389750472066    0.46680003186770
H           0.48090202210354   -0.65569370993338    1.86165540631700
H           1.42649817880763    0.77549964545649    1.64671507522221
