    26
        -50.46849963  Gyration_radius:  2.45557826462 Dipole_moment: 1.245
 S          -1.69309595291942   -0.21603947981212    0.50999078806058
O          -1.33209208876357    0.59058933337167   -0.66097595748261
O          -0.49988833964377   -0.90155722413250    1.02272017752264
O          -2.37043468119465    0.54361502618775    1.52193821016925
O          -2.66535697554625   -1.34149613759914    0.00745200988296
H          -2.18897852741819   -1.74761232325314   -0.73094398692767
O          -0.88030323959679    2.61612217437833    2.18259988085800
H          -1.51132005747466    1.86979697984367    2.05540353015236
H          -1.19576526497955    3.31904829170030    1.61122702672338
O           1.16066715194253    1.52154659319223   -1.18720983036791
H           1.52190661594676    0.69119229459261   -1.58597084004112
H           0.19644972619689    1.38490609293875   -1.17339190140367
O           1.76585377163168   -0.94579376467777   -1.97089800175858
H           2.00568776120415   -1.36642069247678   -1.12559172755329
H           0.88021795013740   -1.28204559958305   -2.17571842991955
O           1.85427704459951   -2.08349168885914    0.51967031976636
H           0.95893933835182   -1.75177639563913    0.72101086233914
H           1.81513646461654   -3.03618376325726    0.61303476930228
O          -1.00267804141445   -1.46352217746738   -2.16361178260169
H          -1.40054464868658   -1.34791048641660   -3.02910433699975
H          -1.07326898470426   -0.59009444994080   -1.70158534311480
N           1.16405260729232    1.11483908382880    1.37125414095842
H           0.53774983685502    1.84359612273401    1.79158690921238
H           1.33906606188492    1.36092987834013    0.33363425659786
H           2.02361610403600    0.98485759405965    1.89326925041854
H           0.59010637764091    0.23290469794836    1.35020999621087
