    26
        -50.46980611  Gyration_radius:  2.50339026091 Dipole_moment: 1.353
 S          -0.56486684071405   -0.38159605040126    1.95063972908413
O          -1.40046608781674    0.44263807010553    1.07737946595985
O          -0.64634830188909   -1.77279787042794    1.55076027890196
O           0.78335807397659    0.12985327551573    2.06214713555323
O          -1.18904119818296   -0.28688478475730    3.40258426121071
H          -1.96234817725981   -0.83922963292626    3.34437568931580
O           1.58790753536662   -0.95636459796760   -1.26872513226925
H           1.83334909811308   -1.53174391822738   -0.50430182100413
H           1.79290247805220   -0.05011881824786   -0.98131421876726
O          -0.78773684917081    2.44323373805533   -0.68627271968985
H           0.16340228521207    2.27411818999017   -0.58498621602720
H          -1.19449897708346    1.91894782701531    0.02271882827582
O          -1.58610978234966    1.15524827529760   -2.85132003543935
H          -0.97497564966502    1.38099388707379   -3.55426835776710
H          -1.38029958985522    1.76858438353946   -2.09835702944789
O           1.92127360172120   -2.19756541181109    1.05639077161548
H           2.21338779673467   -1.48388140461727    1.63245518777889
H           0.96465649947559   -2.26623211256358    1.24585197152689
O           1.70957704382642    1.46776525317324    0.02132547819785
H           1.34602700237568    1.01067481478825    0.82066548138772
H           2.44174976349791    2.00249608299183    0.33235717459090
N          -1.02974833898808   -0.86369015385782   -1.20682086563823
H          -1.34479643995172   -0.21069636249044   -1.97021393092434
H          -1.48545926315673   -1.76851202065255   -1.25373140373957
H           0.03767932140499   -0.97658842150366   -1.27377313776353
H          -1.24857500368905   -0.40865222709084   -0.28556659491849
