    26
        -50.46740711  Gyration_radius:  2.53232909557 Dipole_moment: 1.622
 S          -1.52571503922729   -0.11836023312925   -1.69243347472958
O          -2.38503884972036   -0.49648001383651   -0.57940643843874
O          -0.55943748799838    0.90526172649395   -1.28145695493928
O          -0.87993313919366   -1.22457124848227   -2.34678544290180
O          -2.49211903014519    0.57689559493230   -2.73716639890137
H          -3.22136638766263    0.82444384219883   -2.17757741784864
O          -1.02758350473447    2.30904690102422    0.91384698586393
H          -0.50995989724932    3.10561304233859    0.78241704822122
H          -0.92610228617792    1.78310414522425    0.09128953677176
O           0.18786772089307    0.55495796545675    2.54243646628523
H          -0.33676697286296    1.26176168312541    2.10720713507960
H           1.10657848675885    0.70484378499788    2.24226156341827
O           0.90917876094903   -2.25242967966176   -0.68122139662090
H           0.25406610084988   -2.09342153881867   -1.39318792490602
H           1.54424110695114   -1.52611067693748   -0.79525899131600
O           2.62026881216062    0.86653324657538    1.37761550725664
H           2.41568291779455    0.71314157142918    0.43586470119574
H           3.33360780629297    0.26795272014960    1.60294832399381
O           1.95105850199528    0.23390642393495   -1.18768955033128
H           0.99948531731681    0.50757787093854   -1.24341347282835
H           2.34371007961545    0.48348228211114   -2.02545463951237
N          -0.76183344505613   -1.49301382968794    1.22728839367746
H          -1.15682619929701   -2.21742311266049    1.81696170737321
H          -0.36025054525769   -0.69217211715867    1.82448400107026
H          -0.01846828697584   -1.88971799957752    0.58512101133577
H          -1.50434453004898   -1.09482235098110    0.59130971172733
