    26
        -50.47090390  Gyration_radius:  2.51666720393 Dipole_moment: 3.625
 S           0.13918015178496   -0.52005670090539   -1.58728669060434
O          -0.80661945734835   -1.37565745225446   -0.85844694380553
O          -0.40151467709442    0.81550446307793   -1.76678275456220
O           1.43981752588605   -0.51252447333461   -0.93909376907527
O           0.34879137394659   -1.16028845318875   -2.99628808588507
H          -0.55284011237746   -1.11913290045992   -3.36858757747799
O          -0.34873034034961    2.23111908233218    0.50549768588603
H          -0.47340932903759    1.79342780193705   -0.36008435903632
H           0.61232905260182    2.20236224192019    0.65328949893919
O           2.32277123721846    1.61439283943223    0.39015452331327
H           2.84669692447478    2.20165411134653   -0.15647916667970
H           2.02777854757798    0.88502385435308   -0.19752685715731
O           2.18116074239847   -1.03167518187954    1.58871254757767
H           2.45929587931358   -0.12622110476055    1.76992649295462
H           2.09815598839153   -1.06480891855565    0.61618945198477
O          -1.60347106772941    0.92796389149511    2.37713986060284
H          -1.11804266793379    1.50130855591926    1.71801537168127
H          -2.53520115794267    1.06932467684909    2.20363085567666
O          -2.24220058800792   -0.64473944598653   -3.06740778154817
H          -2.27114226880592   -1.16929814923322   -2.25715047925904
H          -1.91864481965456    0.22325908399239   -2.78224711871996
N          -0.44944735753543   -1.36325798625705    1.72450374110741
H          -0.62467935026200   -1.42891407179059    0.67548554464960
H           0.59588460584039   -1.25570130327158    1.84190006124044
H          -0.94274499350436   -0.49598296196463    2.07754388607414
H          -0.78317385184347   -2.19708150880536    2.19539207212490
