    26
        -50.47063200  Gyration_radius:  2.38675850871 Dipole_moment: 3.280
 S          -0.47360654903904    1.17732661134937    1.21175848996413
O           0.05749575713806    1.93578091705990    0.07636610464366
O          -1.61832544654730    0.37935761222534    0.81290963211831
O           0.54571531585353    0.43051703622450    1.90525527034588
O          -1.01252047777164    2.25106166510425    2.23794620867753
H          -1.68868444967399    2.70856439869683    1.74892505748542
O          -0.38376657395563   -1.79815417259914   -0.14633209307327
H          -0.86624763954135   -0.98682293729638    0.11001838946711
H          -0.51990901897976   -2.37171859034940    0.62338047022660
O          -1.69139488647670    1.16774374168422   -1.81911102372315
H          -2.27913137320383    0.69874199838493   -1.21731173446961
H          -1.05844933602273    1.61298981816421   -1.22670588743468
O           2.21138316948595   -1.17974590627222    0.51965731472302
H           1.86770428097754   -0.63453660177673    1.24885741610680
H           1.43454129872484   -1.70010117105582    0.24161963568227
O           0.01453827834855   -0.71411061595119   -2.68047219253341
H          -0.70258092667823   -0.04751676464429   -2.58485987817067
H          -0.17303040573067   -1.38474393692373   -2.00664239029195
O          -0.80618736864311   -1.85787200178378    2.55959724256277
H          -0.25451919489222   -1.06055557056560    2.48945447803591
H          -1.71060714742606   -1.53908067382845    2.58669620795942
N           1.85090399040119    0.60123175100494   -1.35683144970527
H           1.24495754262061    1.26144817883292   -0.81282623915450
H           2.20727607387615   -0.11614852432916   -0.65122747801369
H           1.20436626694135    0.07849256689565   -2.03499091101567
H           2.60007882017471    1.08785115139275   -1.83513064040256
