    26
        -50.46858337  Gyration_radius:  2.45061257457 Dipole_moment: 2.497
 S           0.88498506761461   -0.37403070871604   -1.63364076090032
O          -0.05758698119858    0.07140806108482   -2.63295562003312
O           1.47061471242160    0.73519118806343   -0.88759435624148
O           0.35894243658213   -1.39450498199791   -0.74520746233700
O           2.07476630503994   -1.05553947173853   -2.42343072808733
H           2.12926725332103   -0.46261029469817   -3.16349952297063
O           1.01970199561199   -1.46834279557859    1.85581019404001
H           0.88562325672634   -1.64013542316410    0.90256269479307
H           1.77758431132221   -0.84911029383995    1.88027549289456
O           2.79600039088537    0.49504831470997    1.39891126483967
H           2.42122901954868    0.56772092785032    0.49579823759316
H           2.73779429983847    1.37446929798268    1.77617028601604
O          -0.44919876950442    1.96525633082081    0.47558824572305
H          -1.13788390314177    1.99782066567610   -0.22170153294385
H           0.33236893702524    1.60430964398183    0.00632823912807
O          -2.16915018659302   -1.65886003146926   -0.03182163153270
H          -2.31359475136142   -2.60370528103834    0.04005729510185
H          -1.28978719202148   -1.55382083554439   -0.45755189442338
O          -2.00203162162469    1.57696168873814   -1.65297711474514
H          -2.23819285733677    2.18793701614632   -2.35250329183077
H          -1.34860597887094    0.95762846010326   -2.04680283678441
N          -1.19754031098438   -0.08806120927255    1.91492612541985
H          -0.29334634087004   -0.64701399696724    2.05791439349397
H          -1.78254647413368   -0.65550860409701    1.26050910681412
H          -1.67991166439160    0.10280323554575    2.78499136080740
H          -0.92950093388936    0.81468911743841    1.39984382615301
