    26
        -50.46538875  Gyration_radius:  2.48783114506 Dipole_moment: 7.214
 S           0.63117869053640   -0.82352869423514    1.97847232860169
O           1.14833191618694   -1.84703947539229    1.07316585583520
O           1.58505186897156    0.25413209456380    2.16813106124546
O          -0.68786159215461   -0.37786701090865    1.58637561816123
O           0.47097794199350   -1.51660396899172    3.39358026735590
H           1.37722997148413   -1.58209575546571    3.67485864310218
O          -0.86402277578055    2.18738179264472    0.73602903330381
H           0.06369131656454    2.33912588762717    0.51989224752571
H          -0.87816602933731    1.32698298426446    1.19278142250121
O          -2.45709889262950   -1.02299543214910   -0.36553538469584
H          -2.46933464464474   -0.15607213348182   -0.84600294627775
H          -2.11012686689573   -0.81008121113651    0.51792356465187
O           1.84057753474731    1.62342068616847    0.00658732437421
H           1.75138994002453    1.08009258779666    0.83677777775333
H           2.70027658767675    2.04348811637059    0.06480624595129
O          -1.90439444679008    1.27176905253204   -1.56208046598997
H          -1.05598556465476    1.08367416077071   -1.98295530626255
H          -1.67471729396103    1.75826561567872   -0.73940687076790
O           0.80749092320089    0.52661318253338   -2.20216893233766
H           1.17847125949409    0.92656778695554   -1.38268523044205
H           1.32831134484629    0.86504644758344   -2.93159295837456
N          -0.14891920015056   -1.85021314888940   -1.17291071258823
H           0.24107511241385   -1.06479300503974   -1.71688849736270
H          -0.09355518574373   -2.72076985473654   -1.68897071371075
H           0.39618581186894   -1.91435850963572   -0.25793002222790
H          -1.17605771726415   -1.60014220542756   -0.90025336932779
