    26
        -50.47082102  Gyration_radius:  2.42029266022 Dipole_moment: 3.989
 S           0.26008263535237    0.22354890734285    1.98558035319319
O          -0.54125738943385    1.40947598616275    1.73392359568101
O          -0.50596093295316   -0.99740458601892    1.86918304081331
O           1.48631517880241    0.20390242528733    1.19655277759662
O           0.74876022219974    0.32170002222018    3.48831017941296
H          -0.07498304178441    0.32642528522239    3.96351060039205
O           0.99376431222960    2.37576648076962   -0.20731156745282
H           1.44899979216387    1.68854144029076    0.31960409423663
H           0.20915028348241    2.54401869874226    0.33472935771159
O           2.05207704114981   -1.19722745721176   -0.92135889256448
H           2.98103903803247   -1.43001125879577   -0.89073954902900
H           1.85876900373131   -0.73142569799822   -0.06882603492602
O          -1.78185932376502   -0.49984785050727   -1.75458489940822
H          -1.42160244681874   -1.34336924821722   -1.38774694055141
H          -2.24817473916105   -0.09408357924542   -0.98630405225750
O          -0.46975302842299   -2.38699731885521   -0.43406325698494
H          -0.52315098266942   -1.99425363156547    0.45922430190388
H           0.45294592254500   -2.28680600849930   -0.69925567312943
O          -2.67222009381300    0.29959644298353    0.61811908982556
H          -1.96191395422814    0.83566119276335    1.02204359542398
H          -2.60594424924397   -0.55003023936873    1.06496890768477
N           0.47131046193469    0.66908056449615   -2.16478751150741
H           0.60490257878015    0.99200965797952   -3.11637920684161
H           1.15334435714500   -0.07206259361622   -1.92266627499578
H           0.61662299230886    1.45683927967043   -1.46899319792886
H          -0.53126359755382    0.23695309597144   -2.03273281630208
