    26
        -50.47398720  Gyration_radius:  2.43793645177 Dipole_moment: 2.201
 S          -0.48101632486689   -1.76967640571946   -0.58620833827012
O          -0.18473179716442   -1.71912594910026   -1.99898512669689
O           0.71386437092782   -1.61788325229604    0.24255611397654
O          -1.52542818392868   -0.85992641158263   -0.15793506852559
O          -1.02714172172079   -3.22899349793567   -0.31069837805002
H          -0.55097228204733   -3.71426659843932   -0.97460576309129
O           2.33522895242255    0.36977958049890   -0.73408086055483
H           1.89108202198021    0.59137844537179   -1.56733845430611
H           1.90028086275184   -0.44098727592878   -0.42124301995576
O           1.18302204627503    2.08547633101936    0.94123053831757
H           0.37243932084938    2.18001330726077    0.39056326685681
H           1.81073377517304    1.60602582709802    0.35077526048725
O          -0.92492238864288    1.72961830989742   -0.66521129334647
H          -0.48651238065509    1.66496079203165   -1.52597527456124
H          -1.23672007508424    0.82413859915570   -0.48744479984143
O          -2.27507101874891    0.20432891251322    2.15395361206815
H          -2.19323298391748   -0.30993097144004    1.32470943630311
H          -2.57556536376096    1.07573833224815    1.88381017080755
O           0.50527250683599    0.67641307520475   -2.80726939538501
H           0.21327883342896   -0.23370752112330   -2.56435617578692
H           0.58141605816144    0.68949862201973   -3.76244467200555
N           0.39637001018085    0.03081523187579    2.28902263225765
H          -0.63705843420553    0.12597248494349    2.43655652825697
H           0.88135757066368   -0.20209776564865    3.14781229472182
H           0.54338056487242   -0.71237873139909    1.55908130321261
H           0.77064605022030    0.95481651947292    1.84372545311168
