    26
        -50.46678395  Gyration_radius:  2.49244232258 Dipole_moment: 2.308
 S           1.92041793250402   -0.58253504056784   -0.86620295838266
O           2.21871474792748    0.69827341418763   -1.46478962803661
O           1.99524949051768   -0.57921392449601    0.58709824422365
O           0.64969844296680   -1.13905364028156   -1.31726915237600
O           3.05624129628846   -1.57030459111391   -1.36876005474978
H           3.36079681008628   -1.12522689292955   -2.15270486096957
O          -1.35290328814216    0.65049054352447   -1.57627292362679
H          -0.63035736430504    0.00078169895871   -1.64751143827715
H          -2.03884837977830    0.20739316823093   -1.05400782245202
O          -0.43844269854263   -2.04857026415015    0.87202110247010
H          -0.03114478461400   -1.73888321311198    0.02596175748910
H           0.31028879219603   -2.32289736748630    1.40589170734820
O           0.38825465028193    2.56288546043856   -0.92462343937612
H          -0.39452431234440    2.06991949955134   -1.25143318778975
H           1.14656176952361    2.05871043217734   -1.28393169716633
O          -2.93904521905618   -1.10313360852505   -0.05911757533529
H          -2.19351585100423   -1.66235049754897    0.20464059915801
H          -3.47375780749834   -1.62236373006588   -0.66136636963061
O          -1.49669897971213    0.14017288703652    2.09816777721663
H          -2.30358314750114    0.24799549005885    1.58518077031703
H          -1.11428660850690   -0.70555506422325    1.78111221558715
N           0.67514909619301    1.53117801349280    1.43773148697746
H           1.29741063628300    0.71796312872706    1.18188794418407
H           0.51872651712617    2.08638301257843    0.52245666225729
H          -0.23625802335816    1.12352054771402    1.77150158813493
H           1.10585629247200    2.10442051785335    2.15433927280929
