    26
        -50.47327821  Gyration_radius:  2.37186106281 Dipole_moment: 7.404
 S           1.25899696772791    0.74483811808210    0.34095340535124
O           0.59005640889063   -0.50438484562336    0.76497866827877
O           0.97745913069508    1.00387439157450   -1.06409047102195
O           0.84036264677153    1.85000668449941    1.18769159089969
O           2.77033396155343    0.54221224580890    0.53604728802737
H           2.93432932827707   -0.39049689364195    0.20090085169949
O          -1.51831726202844   -0.36696727551025    2.33417664087404
H          -1.23451804033253   -0.35100689802209    3.24939806169332
H          -0.69545967753456   -0.47971779667113    1.80033573738203
O           2.75570741149371   -1.88813039300812   -0.27786479176926
H           2.35399229186958   -1.79596022713089   -1.17747529507529
H           2.01837858751067   -2.08569717282724    0.30953677854153
O          -1.62429086945621    1.07617127414912   -1.52697016255485
H          -0.65116619812897    1.20285256284540   -1.55939725722144
H          -1.72240164503401    0.10622614935514   -1.49744353113460
O          -1.19041598391675   -1.53395597704147   -0.89476417985426
H          -1.77853042968585   -2.05336384209732   -0.34409615028530
H          -0.49421200380762   -1.18241914698205   -0.29357132011104
O           1.27358653601874   -1.29180859067734   -2.38868253112106
H           1.22408000858512   -0.36586669399762   -2.07905952623170
H           0.38669024428677   -1.64763174698943   -2.26002145878160
N          -1.72948437704939    1.90671153389688    0.93840335317063
H          -0.67751085813723    2.05458577715949    1.06725119601172
H          -1.95406867983115    1.09184323281782    1.54938923176087
H          -2.26503201636005    2.73367308039300    1.17750466199963
H          -1.84856548234609    1.62441245003706   -0.09313078022721
