    26
        -50.46887052  Gyration_radius:  2.42985692548 Dipole_moment: 2.134
 S           1.05888227663614   -1.05828507887152   -1.12812359970546
O          -0.27593884411976   -1.62348093055714   -1.30363538231846
O           1.19647953646968    0.21188242438689   -1.81630689030935
O           1.44890406043562   -0.99911609500626    0.26345673742676
O           2.06044920738434   -2.06428367080657   -1.82347691137833
H           1.76572398651928   -2.06099751921654   -2.72811342747325
O           1.24375861135862    2.20474884836843   -0.09510298105710
H           1.26999544677906    1.44679597786943   -0.72477935845395
H           1.83047630471564    2.87186918913409   -0.45435010125083
O           1.76977369001215    0.86966568296890    2.36753596775324
H           1.61613380755913    1.53200447148728    1.67995720081856
H           2.11259159372270    0.10757449448785    1.88953294268619
O          -1.38452665073571    1.81410751913382    0.55357674980025
H          -1.64082169730924    1.44990605942305   -0.32315181385197
H          -0.50710402936380    2.20815047195188    0.41265631025521
O          -2.14833538301760   -2.24035077009712    0.50631848215148
H          -2.96356960731319   -1.97331188343457    0.07658231000395
H          -1.45521939230357   -2.18355419777836   -0.18364421434443
O          -1.58838303849752    0.61905103034274   -1.83591381079616
H          -1.19889878149563   -0.26393049006182   -1.67948246446291
H          -0.91828990722712    1.08072164262210   -2.34729363446297
N          -0.67073354874250   -0.39751641829814    1.76609690741974
H          -1.01520574632913    0.54028397040969    1.37511680201108
H          -1.37045839770714   -1.14157529162071    1.55898545267698
H           0.20532240724544   -0.64531516367165    1.24176641012265
H          -0.44100590467430   -0.30504425316890    2.75179231674444
