    26
        -50.47082124  Gyration_radius:  2.4199641035 Dipole_moment: 3.994
 S          -0.95153533967200   -0.02069176083279   -1.77436781989424
O          -1.34963292817243    1.30228702859498   -1.32272469838222
O           0.44907251500973   -0.08600584493958   -2.12808879110292
O          -1.35410436565377   -1.06999623946858   -0.84517668586072
O          -1.77687377306954   -0.31165729120722   -3.09365311992891
H          -1.48873556483812    0.39097658092693   -3.66591911863456
O           2.24497660331077   -0.97902993250098   -0.33507748078446
H           1.74850509232558   -1.69065604063481    0.08792401065737
H           1.68382032765697   -0.68265879417253   -1.07824588662886
O           1.92081844761526    1.12559970453813    1.24353111218241
H           2.26042592322908    0.36351576316775    0.71452157986247
H           1.61640768319205    1.76544391816574    0.55772082719023
O           1.03141584121076    2.39121568746750   -0.91724076435092
H           0.09914607085832    2.12337408214548   -1.03597638571171
H           1.50900942452063    1.86894229901268   -1.56923846410096
O           0.10365380734587   -2.39848725981587    0.85142445517526
H          -0.22853030005835   -3.29601153588270    0.89809985583011
H          -0.42544749201286   -1.94728356126288    0.14593789736474
O          -2.31723540245495    0.51849647639765    1.02036359872136
H          -2.20797822274602   -0.23279990472299    0.40366496423907
H          -2.18540662242443    1.27254135368013    0.42655480103793
N          -0.08296468042922   -0.08202495431023    2.31035202147227
H          -0.99546822031314    0.26711929747442    1.89615009473326
H           0.04204547322756   -1.05521053060277    1.97842777997601
H           0.75621315880192    0.50377372530902    1.90795447675209
H          -0.10159745645907   -0.04077225652647    3.32308173018506
