    26
        -50.46438548  Gyration_radius:  2.52543714704 Dipole_moment: 7.988
 S          -1.34982716528976   -1.13597978757566   -1.26596144434089
O           0.04925520627937   -1.43100262457667   -0.92795965720236
O          -2.20381683631519   -1.40906766188234   -0.12205502047592
O          -1.53350336456009    0.15720413789167   -1.86475821022935
O          -1.74983934238171   -2.19875682753407   -2.37154271341403
H          -1.81892629446504   -3.01907165689753   -1.89319992963656
O           1.11518933771941    0.35822088487187   -2.63772411837414
H           0.22919970747840    0.66231028202650   -2.86690775104214
H           0.94754657488128   -0.40734363323983   -2.06460286867801
O           2.55994633775339    1.13975908057092    1.44966065911741
H           2.37506083819691    1.53593855556698    0.54283164770218
H           2.41779148343932    1.85908532688705    2.06734224663612
O          -0.69435305318293    1.45588285782373    0.31288620253477
H          -1.30851312679974    1.24840096391404    1.02242494943851
H          -1.07654742210986    1.08676803789458   -0.50257390234989
O          -1.78652811047447   -0.37309628189152    2.21668400350055
H          -2.01972018757411   -0.76353294900978    1.33399173516673
H          -2.43043634878141   -0.71618478336463    2.83762976145978
O           1.73336767962391    2.19852858223205   -0.75423177752437
H           1.69981928286438    1.58311418061431   -1.51716085064436
H           0.82144997386642    2.22470993907900   -0.42799287740119
N           0.81055009363280   -0.81817346859734    1.50605156652437
H           1.49882484608561    0.00412908080682    1.50203699306350
H           0.55786470636055   -1.05411090553947    0.50245560078120
H           1.23560744599877   -1.62597444914961    1.94925537219400
H          -0.07946225223708   -0.56175689091957    1.97342040319088
