    26
        -50.46734159  Gyration_radius:  2.50813186945 Dipole_moment: 2.170
 S           1.44984634849449   -1.15947220654787   -0.46324018562160
O           0.54522928710121   -1.37268092253600   -1.58583747934858
O           1.96445866706088    0.20232859602623   -0.44366539839811
O           0.85564644704588   -1.55457080656034    0.79385069218196
O           2.70077339356428   -2.09673030939574   -0.69628111984251
H           3.16656753327616   -1.65749222434413   -1.40086245435271
O          -2.05003609625113   -1.67988357790968   -0.97007423882285
H          -1.09563937085606   -1.64269830793409   -1.19376624197744
H          -2.27682486204822   -2.61008488192194   -0.94981951459737
O          -0.68595184628724    1.12816375368336    3.30668827177435
H           0.15398713345422    1.39323802806063    2.87098327562906
H          -0.43750447106429    0.51783154692614    4.00252266169668
O          -0.14081101537319    1.80272890876602   -0.86867525013050
H          -0.51681171609583    1.52376989708998   -1.72986485812697
H           0.73160935672205    1.36592019689128   -0.82867487690345
O           1.48771551470542    1.66425512750009    1.79508860488878
H           1.75910806823109    1.02947071241976    1.10610564103837
H           1.32530435557435    2.48780489394012    1.32812096216101
O          -0.99730229144261    0.37624132923576   -2.97609600107696
H          -0.33235904478820   -0.27303130445861   -2.68596799054592
H          -1.84525649218956   -0.02994782989218   -2.77589806916217
N          -1.18422408406369    0.12184217793762    0.88393076421517
H          -0.87404221435877    0.89724788499850    0.22338597675910
H          -0.39051690023717   -0.56757901574442    0.93779692888856
H          -1.32852244966076    0.50702220317898    1.84057929904132
H          -1.98444325051085   -0.37369389940699    0.47967062063550
