    26
        -50.47097819  Gyration_radius:  2.46986484197 Dipole_moment: 3.293
 S           0.97491939585511   -1.33501954775025    0.02351771791148
O           0.73844482112904   -0.81269049897234   -1.31608373380051
O           0.83184273045430   -0.25636549936900    1.01799106681812
O           0.14364692294692   -2.46561072696866    0.33714826723450
O           2.47323174870193   -1.79394232498446    0.09338519639075
H           2.98269875393102   -0.97408622937372   -0.00293203906543
O          -1.97008857072651   -1.79499547702605    1.87390919705741
H          -2.09879769668816   -2.48331987509057    2.52767415407714
H          -1.18135948961618   -2.06509307464707    1.36494674007801
O           1.11822712608176    1.82617912299666   -1.48669484643985
H           0.94544833800472    0.86545560893517   -1.55528364174078
H           1.94379764699110    1.88742997257988   -0.99352645621734
O          -1.13411922477905    2.89657817394937   -0.59835357327689
H          -0.24449767905666    2.58620763308037   -0.90507047087639
H          -1.60473626874850    3.14950717915166   -1.39429300707834
O           3.08021974029518    0.86166177912165    0.38209219254915
H           3.61895009413910    1.12621692171079    1.13029318789316
H           2.20152789497683    0.60342888204050    0.74332799655140
O          -1.86070488987877   -1.25360984782995   -1.39614847851417
H          -0.90938878830310   -1.13479445369678   -1.59952908805465
H          -1.91320317385038   -2.10878126988697   -0.95922237187611
N          -1.65118241316615    0.55545439840905    0.55296668011818
H          -1.90414588858194   -0.11340396632636   -0.22494322754115
H          -0.68075360563817    0.28710510317037    0.85399756382024
H          -1.61913899629413    1.54308885120795    0.19397793874896
H          -2.28083855819328    0.40339915554919    1.33685301522547
