    26
        -50.47073330  Gyration_radius:  2.43649080221 Dipole_moment: 4.206
 S           1.16918608227037   -0.23313523865548   -1.36079190302603
O           2.04797503468011   -0.59100851104273   -0.25370151035420
O          -0.01535714883147   -1.09761136098592   -1.36418854196916
O           0.84401358643099    1.16210588139081   -1.42184262883341
O           1.96562068997925   -0.59157125133074   -2.67716019762756
H           2.32561917126712   -1.44411109621169   -2.45799075521246
O           1.50475532730171    1.50889343393165    1.32000696896970
H           1.49458461295015    2.27141902779517    0.73611972163571
H           1.77661507774154    0.76745869723129    0.74743126656970
O           1.53646744213621   -1.69796489583435    2.12930739909671
H           1.78720876935040   -0.98972661488533    2.72819065802255
H           1.87504463931515   -1.42359901370487    1.25361290104632
O          -1.61239255342398    2.04867263418312   -0.66501676602046
H          -2.15276570571313    1.36636060156518   -1.10065493225384
H          -0.71170016360749    1.90111228624207   -1.00330806752509
O          -1.14315844593202    1.19486868991968    1.77173309339484
H          -0.18731349382299    1.40615751286534    1.80963740606586
H          -1.45577737535447    1.62729264778079    0.93408354317304
O          -2.46337569898857   -0.19914560888868   -1.99121320302926
H          -1.57328977312087   -0.57244998855752   -1.83886797727829
H          -2.55245414823443   -0.09135711441146   -2.93915869182825
N          -0.91321287998128   -1.28899057744901    1.13345802316998
H          -1.11736529944154   -0.25598684748073    1.43756844053909
H          -0.07214935889891   -1.61088542407590    1.66908372140100
H          -1.71658487690462   -1.88934237926960    1.28189341578043
H          -0.64019351129208   -1.27745550010764    0.12176863635369
