    26
        -50.46981982  Gyration_radius:  2.50034443568 Dipole_moment: 2.055
 S          -1.01275714498965   -1.45872674755437   -1.15987240323433
O          -0.91139236738518   -2.35923634386626   -0.03756450374982
O          -1.68671819978615   -0.20674243040559   -0.79826985494308
O           0.24130045915329   -1.19848385249349   -1.83990239131225
O          -1.95240266125278   -2.17511882173671   -2.21392847821215
H          -2.45167330858874   -2.74662154169642   -1.64121828838024
O           2.16778383496672   -0.29857705374568   -0.35731731712043
H           2.99327077617658   -0.62325139874275   -0.72093608663953
H           1.45136838204997   -0.65728947133439   -0.94305036219910
O          -0.07962377170526    0.23827939492551    3.24387253417652
H           0.65138256373695    0.56741739425250    3.76905159994561
H           0.27003748157318   -0.56405686836463    2.76315001345642
O           1.11081553371573    2.22887785691930   -0.41204208705148
H           0.63398166920438    2.11974064321428   -1.26753762325572
H           1.67239044479274    1.43636486528102   -0.33927323775794
O           0.94221913825783   -1.63107829543883    1.74454673545940
H           1.52496110690061   -1.16342766851332    1.12398380363374
H           0.24057459131872   -2.02090787442298    1.18597091540244
O          -0.37976655780375    1.41112418683899   -2.48069618130404
H           0.13681917856973    0.73115321771683   -2.92418490386845
H          -1.00939407570668    0.89986320466404   -1.93745149510923
N          -0.92272268046940    1.50672187123309    1.06588415501443
H          -0.06941976792484    1.91359062716246    0.55577769748635
H          -1.62479851431303    2.22119449087192    1.22431251206579
H          -1.30720898910280    0.76968032439614    0.42114446768458
H          -0.62902712135356    1.05951028063000    1.97555077978617
