    26
        -50.46276872  Gyration_radius:  2.52141719 Dipole_moment: 7.618
 S           0.71151148755601   -0.20461616020792    0.33011020758933
O           1.71428517933967   -0.88719139616377   -0.49728665859479
O           0.79696019471633    1.24082655010404    0.20195574212279
O          -0.62435175663452   -0.70531131438441   -0.00965701246735
O           1.02280759752743   -0.60417455877185    1.77827306454718
O           0.46943417689649    3.01760028951103    2.16344880341127
H           1.35653815641821    3.31010802490435    2.37863731862590
H           0.55213404283228    2.47435131025542    1.35356183956525
O           0.92254249663644    1.08623957354567   -2.43681903760379
H           0.83069254856141    1.30048432561674   -1.48630566199985
H           1.79957100837315    0.70483295177249   -2.51398232862175
O          -2.52128301653138    0.16975769056359    1.61235089226718
H          -1.85742815109436   -0.12085506084200    0.94992873815145
H          -3.07123971601310   -0.59327659428158    1.79651236488885
O          -1.14484821316603   -0.59303299142477   -2.60455730593693
H          -0.23838980454318   -1.78495245636809   -2.43462052606617
H          -1.27652665710582   -0.51363632672587   -1.63763839044045
H          -0.51445813071521    0.13328478068272   -2.80152690088804
O          -0.49073581237049    0.76760730847768    3.25750372589731
H          -0.21327522989218    1.68361441037050    3.03860085658782
H          -1.35346317908459    0.64418733763091    2.80733179545105
H           0.42345472148758   -0.06651551846261    2.42625102209675
N           0.50040552599006   -2.49078757101239   -2.04299391641987
H           1.08638840839772   -2.89091537109942   -2.76802359296947
H           0.03422280534467   -3.21691429844488   -1.50916866727130
H           1.08505129707066   -1.86071494524773   -1.35188639191869
