    26
        -50.46486238  Gyration_radius:  2.57769608951 Dipole_moment: 1.475
 S           0.21731238036948   -1.01740284143150   -2.15140515813272
O           1.64079182523554   -1.27168142925109   -2.06448328766009
O          -0.49887871083155   -1.53706450129557   -0.97606506436617
O          -0.14368535005101    0.35419389104565   -2.41029981299301
O          -0.30308495948720   -1.87151505758846   -3.38148485174529
H           0.19877218070614   -2.67556392397314   -3.29393503752738
O           0.78329099557327   -1.13936058816951    1.40223552264697
H           0.30500751166423   -1.42970288507588    0.60603300706023
H           1.65250090660355   -0.86014348284978    1.08342142634803
O           0.58437919405346    1.83957527862587   -0.32725209787157
H           1.39385493305295    1.35419426583399   -0.08175289412387
H           0.42859089641535    1.56443066952408   -1.25099965326996
O          -0.02559904794856    1.14849782135393    2.55697719797043
H           0.31469345092925    0.28016722819738    2.24305548865771
H           0.26991626399077    1.79494762403013    1.90969337645746
O          -2.54408244683220    0.39763216167062    2.44834787624127
H          -1.66348232830141    0.78445015579350    2.68429544542690
H          -2.55987995833246   -0.47439505386269    2.84700261421388
O           2.70065824207638    0.11974041063135   -0.14254651378233
H           3.62230140298340    0.29792873745554   -0.33554524805056
H           2.35912383779990   -0.42419926812809   -0.89684910474459
N          -1.77410289648270    0.55709131245826   -0.08969325444741
H          -2.42005826755346    0.94466657860744   -0.76964178134434
H          -2.21566020836338    0.44880270041314    0.86455465207959
H          -1.39392447581446   -0.36364943922875   -0.45119901819611
H          -0.92875537141806    1.17835962522255   -0.02246381885864
