    26
        -50.47007291  Gyration_radius:  2.45484300397 Dipole_moment: 3.595
 S          -1.23337244907928    0.64525034439768   -1.00180313481303
O          -1.43062130386883    0.46188886298025    0.44732251573054
O           0.20023689304689    0.45006695661068   -1.30971536292546
O          -2.06672388285068   -0.23291616459782   -1.76948161311127
O          -1.57178573680271    2.11742684526415   -1.34246682794524
H          -0.80744640566922    2.65159203259935   -0.99576017762110
O           0.57430023441623    3.18738274309203   -0.32733830424120
H           0.52871108613334    2.84160236507105    0.58766930449102
H           1.24306024516898    2.66438868829913   -0.77972055865541
O           0.15520180396791    1.81218582586513    1.96940417919592
H          -0.48925759086020    1.26953773947483    1.43892858733078
H          -0.34400710898006    2.18266772626972    2.69852280096367
O          -2.17383622595399   -2.05886190087642    0.22068576177345
H          -1.98194398454027   -1.14709552385663    0.53083556612899
H          -2.76445925178121   -1.90885650452630   -0.52715703932438
O           2.08819078737809    0.38021689571520    0.58169675106874
H           1.65046916808680    0.84013464480990    1.31052828233714
H           1.45957459347819    0.43721973993928   -0.16744035203202
O           2.07981858648337   -2.24284704354951    0.84690560257174
H           2.24336840773946   -1.26557955284011    0.78365410529520
H           1.79995666505629   -2.41118633615519    1.74825795728782
N           0.17509766240659   -2.16004208342302   -1.00426559362998
H           0.25442862455873   -2.75434282193396   -1.82249045838509
H           0.95042100782112   -2.34350665422142   -0.30831463044494
H           0.22994283880377   -1.13892098274592   -1.27961898803665
H          -0.76932468417034   -2.27740582163958   -0.52883837300345
