    26
        -50.46954698  Gyration_radius:  2.4989032353 Dipole_moment: 2.199
 S           0.07068315303669   -1.28945113350931   -1.61253971494121
O          -0.43898566583212   -0.05436301372557   -2.19343250900162
O           1.26590179250676   -1.03308496824295   -0.80726401724653
O          -0.90844198734542   -2.04954200033500   -0.88126865040344
O           0.54009166328225   -2.18603481667331   -2.82990526888381
H           1.17455901515440   -1.64241140988678   -3.28707939307023
O           2.29158696388736    1.21996243328067    0.34892074069965
H           2.18237761996080    0.37590273840043   -0.11884629193272
H           1.51543485475096    1.73648541160942    0.07809273513825
O           1.92295145777307    0.46071659857371    2.85916119948421
H           2.21950250769783    0.78854689604731    1.97155599211180
H           1.65353354767506    1.23554489316066    3.35478575784670
O          -0.13681212551282    2.05593232950223   -0.69450421801047
H          -0.21574939110688    1.26364309215976   -1.28549688107221
H          -0.31893031965102    2.81845480090954   -1.24594289056209
O          -2.94535299769233   -0.36536033735284   -0.98710955029434
H          -2.56108811336287    0.10863621270831   -1.73196173309328
H          -2.38725699128879   -1.16368288273885   -0.91709169919332
O          -1.76969794824358    0.78906518326944    1.10367358417974
H          -1.24173757379851    1.43230375604928    0.59934973798951
H          -2.37825405502239    0.38785158733302    0.43852648977849
N           0.09212279375509   -0.99720207709949    1.58424688044696
H           0.56908213012046   -1.11971533910710    0.65779696112941
H          -0.72764962438449   -0.31751431885321    1.44104324192632
H          -0.24688985891703   -1.89732361177607    1.90644503625005
H           0.77901916256487   -0.55736004368380    2.24884448072751
