    26
        -50.47688200  Gyration_radius:  2.44048349884 Dipole_moment: 2.689
 S          -1.45767912945610    0.52613479317414   -0.24311789897647
O          -1.28957033488837   -0.52363418564440    0.77191383341290
O          -1.03379762149581    1.81290876066616    0.28030600510573
O          -0.77682031331371    0.17337888871503   -1.47699486655090
O          -2.97809590373338    0.59777353977751   -0.58325856465330
H          -3.37869741079102    0.85962906313573    0.26841985973884
O           2.17667917544666   -1.84581034532183   -0.68101170354090
H           1.32774562576755   -2.26106545690010   -0.95431419456947
H           2.27135218700538   -1.06384728142193   -1.25098772850863
O           1.77933295686983    0.61655801168667   -1.89946409448141
H           0.80872782563019    0.48225385595168   -1.79234727760096
H           1.90909634615168    0.89555422827291   -2.80716736094943
O          -0.38597377628861   -2.45138650191722   -1.17432537380487
H          -0.59774431360726   -1.54041302496297   -1.45445153947528
H          -0.88581787250457   -2.57301574659753   -0.36309818348199
O          -3.04487123768472    1.21980922699143    1.98263703039053
H          -2.58080043914177    0.38126192698717    2.09646436039013
H          -2.36194256351095    1.84662220290956    1.70202627287011
O           1.61118872161880    1.88941653711608    0.55630351680727
H           0.64861005316222    2.06005869598351    0.47878680206347
H           1.90309481786672    1.67525724869068   -0.34476419650240
N           1.27734041055930   -0.56782935029603    1.41115531753916
H           1.54035683721440    0.44753311809143    1.21661029624365
H           0.23639815223721   -0.62689232789881    1.26363283903999
H           1.74153190023765   -1.17037524539687    0.65162990562202
H           1.54035592667947   -0.85988066174364    2.34541694381434
