    26
        -50.46837084  Gyration_radius:  2.48030914962 Dipole_moment: 2.829
 S          -2.15791412364414    0.61552048954299   -0.16586465714885
O          -1.58476621793884   -0.14471592325992    0.94597793329922
O          -1.32782541922772    1.74426205199946   -0.51813185009503
O          -2.51661125120515   -0.21161573889637   -1.29934359364681
O          -3.52552905819914    1.18987420159266    0.40391001414018
H          -3.98608542683332    1.40376780903748   -0.40014916376101
O          -0.23856136619173   -1.05683678112437   -2.19310195889340
H          -1.11201777176438   -0.69920879956341   -1.89278838850596
H          -0.32140567947660   -1.20220316045607   -3.13713130491768
O           2.06584890814832    0.15454083659818   -1.24094216130197
H           1.26868039467248   -0.22237118484866   -1.65085300436119
H           2.27189678899328   -0.42033823649290   -0.49152497244097
O           2.05501681426307   -1.43304623840266    1.13526678051200
H           2.57695325987018   -2.13414176527842    1.52574916365506
H           1.21044074863872   -1.86005196519927    0.80112462374685
O          -0.20447812588213   -2.34235596798801    0.23399592946946
H          -0.83956637939979   -1.68005113742699    0.56823052940103
H          -0.16746583902422   -2.17446032041567   -0.72127076840024
O           1.20961426080802    2.39680493296444   -0.07819211332410
H           1.65771270940765    1.72529249177174   -0.64321050887166
H           0.27831054993957    2.38485077973500   -0.37569244436152
N           0.68569102278149    0.79643028352524    1.87323721524849
H           1.32981155358233   -0.01201526031707    1.77702021445904
H           0.97620226763415    1.55821382705529    1.14446405238995
H          -0.27698732615545    0.46898686460975    1.57841295201662
H           0.67303470620342    1.15486791123727    2.82080745169177
