    26
        -50.46898147  Gyration_radius:  2.55835505235 Dipole_moment: 1.084
 S          -0.07304179980046   -1.20784410329921   -1.61250336181586
O          -1.15959703611619   -2.00054133214024   -1.07913929154764
O          -0.53399085837923    0.05602063729194   -2.17239614171111
O           1.00847497002507   -1.00562263054412   -0.66104526523397
O           0.53884973224353   -2.04503705272777   -2.81040355145475
H          -0.22936604685865   -2.50180171299268   -3.13664755900516
O           2.35853934672266    1.19711870687444    0.29778700672093
H           2.13393740810664    0.32062439065083   -0.05224914848892
H           1.82986883324439    1.80855246693832   -0.24479795407656
O           1.45588234983740    1.10105952549031    2.78967138247122
H           1.86570180169247    1.25243368483237    1.89990174003504
H           2.15105291675142    0.74455930428182    3.34367110701620
O           0.62261085750192    2.35160895949639   -1.48962853201060
H           0.98172985100254    2.79286587240269   -2.26038633938410
H           0.26298760823256    1.49433526781722   -1.80810083159339
O          -1.92422910348047   -2.48288154415189    1.43014932669585
H          -2.88210415967760   -2.51404367821102    1.41601104958170
H          -1.64541916027068   -2.44511588420102    0.49004005084730
O          -1.79041376259553    1.36190773865503   -0.18770840837996
H          -1.57316542149774    0.82459795366816   -0.97418243844894
H          -1.28601139180256    2.17513204077055   -0.30487753094358
N          -0.42738855203595   -0.25509521567274    1.45654358857141
H          -1.04938413942375    0.44697954398989    0.98542008127221
H           0.20377627160050   -0.62370315967185    0.70810867577496
H           0.16143425282630    0.20585545152718    2.18496637936890
H          -1.00073477785472   -1.05196523106848    1.79179597573855
