    26
        -50.47455451  Gyration_radius:  2.42599089109 Dipole_moment: 3.597
 S           0.15023366403361   -0.22966283722816   -1.51113461987328
O          -0.98908069980177   -0.84479223705213   -0.82148688433825
O          -0.01365717818395    1.21740161270770   -1.54530768819950
O           1.41063551081909   -0.63949173644294   -0.92234687661882
O           0.14977761796801   -0.76343997835315   -2.97626351136590
H          -0.69558601286036   -0.42769501513890   -3.33403073449404
O          -1.42208315679531    1.07954666067396    0.98322621108427
H          -1.31387110622529    0.36370005045186    0.32655377763557
H          -1.34405322889017    1.89119517434722    0.47536686775980
O           0.90794223135659    1.12184575025949    2.35501906218485
H          -0.02745068204081    1.18281704046429    2.07113022024846
H           1.40382390267232    1.58543279769411    1.64250841651738
O           1.99151021806838    1.97280225552243    0.05998870082834
H           1.24331624890317    1.84524231259018   -0.55530597060913
H           2.65082946942061    1.34137167673401   -0.23738224892957
O          -1.20241528213208   -2.24098191315925    1.43302420659384
H          -1.20710075107509   -1.89108080987252    0.51747014905802
H          -1.83279165445148   -1.70008955892409    1.91554077720361
O          -2.15244135494503    0.53264211631740   -2.99955658634982
H          -2.54314372741291   -0.01003242345660   -2.30745686962444
H          -1.54853670137669    1.14252628881288   -2.54403385551646
N           1.29848908897896   -1.33054717123904    1.61503168605214
H           1.43880047711769   -1.15629233465890    0.58380837875918
H           1.20994585594856   -0.34749512832655    2.06050178838426
H           0.37597649813284   -1.82388986792189    1.70808887120414
H           2.06093076272948   -1.87103272479946    2.00704676241795
