    26
        -50.46775029  Gyration_radius:  2.5954766191 Dipole_moment: 4.532
 S          -0.32411798183294    1.16175062028177    0.37067865974987
O          -0.01460807564625   -0.18856794449727    0.85438674533086
O           0.89713922430795    1.80344903747125   -0.11637991084447
O          -1.35656355492511    1.13652190157394   -0.65117513677102
O          -0.86993650043624    1.98497591256380    1.56240817588741
H          -0.33259769110835    1.67889664181962    2.35007427254082
O          -1.74417794451058   -2.13877652094361    0.58981926004110
H          -1.15536836746110   -1.35285192891753    0.67906289508069
H          -1.45129506154462   -2.76352909500199    1.25534428098698
O           0.74990473006478    0.86784202183148    3.21727054217356
H           1.57881703033638    1.31353876985299    2.94319822360539
H           0.64199714587586    0.13049040044272    2.59733999906775
O          -1.90460156879510   -2.68450390828367   -1.98609516658880
H          -2.84327596328147   -2.66431901724209   -2.18107426287461
H          -1.83703625007925   -2.57210860087064   -1.00514541573521
O           1.79860252704535   -0.36232131082494   -1.30942930935277
H           1.71937554649771   -0.94017564221391   -0.54439251075185
H           1.62580529729915    0.53481066397221   -0.94482134566450
O           2.65853587877956    2.14291007352677    1.82918258765175
H           2.83268909807019    3.08146618856431    1.91444541411360
H           2.07783656369732    2.04508566418637    1.04262148689728
N          -0.55248398711794   -0.45066131037215   -2.52717894056933
H          -0.98288800606165    0.23810153155235   -1.82949197572924
H          -0.60364378436832   -0.09027549873872   -3.47372663001059
H           0.45071612405055   -0.54120642469235   -2.20595313440273
H          -1.05882439884921   -1.37054221503862   -2.43096881382914
