    26
        -50.46936681  Gyration_radius:  2.58257749403 Dipole_moment: 2.032
 S          -1.56787431630219   -0.05177142377381   -0.25608274961429
O          -1.34560537530931   -1.44066839404958    0.15394654319719
O          -1.29746566919280    0.86553157151338    0.84269745364181
O          -0.79338634642333    0.28165608582773   -1.43828207386957
O          -3.07011240422986    0.09032099442032   -0.64920573397726
H          -3.52585170255953   -0.29685881789222    0.12290631675570
O           1.31855453731185   -1.15594619593897   -2.14060138573566
H           0.48196089749589   -0.67885199038457   -1.93955736007370
H           1.08721062543679   -1.84823034698192   -2.76125415109421
O          -3.62822032597201   -1.45737459240358    1.42467181854091
H          -2.70556294132443   -1.62725811034335    1.14195036548791
H          -4.12072241781942   -2.26187522608820    1.24673672650250
O           2.43959604260579    2.47595345311037    0.51413267564293
H           2.14442594381447    2.24378726465794   -0.40451377314459
H           2.12018011052318    3.36627402834498    0.66954036857956
O           1.26909268086652   -1.78842898801046    0.50390760680994
H           1.55900042383358   -1.64872681205623   -0.41722448431908
H           0.29259657311448   -1.84326427801956    0.43676226296038
O           1.44130655388932    1.76051372074893   -1.81478052016684
H           0.52995037880074    1.44240330090168   -1.67639391157720
H           1.90843108527688    0.99839083830414   -2.17372658386087
N           1.10964090558524    0.51997864640997    1.74696180008977
H           1.71584876443750    1.28164048277705    1.34513755460566
H           1.19201676221412    0.47859674231771    2.75670832911338
H           0.10111425261503    0.71634337622404    1.45830659204324
H           1.34387497131414   -0.42213534963115    1.30725631347592
