    26
        -50.47111338  Gyration_radius:  2.39955152523 Dipole_moment: 2.253
 S          -0.05525174855996   -0.52147053765105   -1.70886101080793
O          -1.48880074356792   -0.42534837141444   -1.49393825278049
O           0.57591689528679    0.79508275945760   -1.69307837390504
O           0.59778660587520   -1.45656004775519   -0.82290610037629
O           0.13760031530458   -1.08581560610843   -3.17287154131584
H          -0.42917052767778   -0.52870023621844   -3.69641200328107
O           2.83272266545520    0.08612127685480   -0.40027278197707
H           2.13709365805541    0.46365038306946   -0.96776403334942
H           2.66367734332468   -0.86070349232935   -0.43202038257350
O           1.77380732261525    0.93707716562417    1.91693046597386
H           2.35288157950523    0.64557817977132    1.17686970085809
H           1.27079885261465    1.68143081021952    1.54755096170319
O           0.18375668418735    2.50802019061390    0.26342615254068
H           0.33580039301373    1.90100532908881   -0.49879324652285
H           0.36567179318245    3.39205658377976   -0.05844832433240
O          -2.14569512165666   -2.29171739569274    0.40229519887913
H          -3.08615470070661   -2.45633525895566    0.32114127889973
H          -1.90892460298162   -1.72602256547741   -0.35067385848020
O          -1.97835989763339    0.88953252910097    0.81389900977851
H          -1.39698995572884    1.66281627643320    0.74106129335390
H          -2.00175086001974    0.49418749100846   -0.07736537160485
N          -0.14475720769646   -0.83658179773445    1.66613839991862
H          -0.99750169374001   -0.23550587657255    1.48499904477844
H          -0.36219584921349   -1.56691804193183    2.33540587872539
H           0.10951920336559   -1.26654728811453    0.74764551082785
H           0.65851959735856   -0.19833244906372    1.95604236502849
