    26
        -50.47361544  Gyration_radius:  2.43378454544 Dipole_moment: 3.331
 S           0.52944424427901   -1.13315531051796   -0.86306270101077
O          -0.67895039534153   -1.36197151227151   -0.05412363253343
O           0.24502918851259   -0.20769173856525   -1.94357070526356
O           1.63728828455089   -0.70397110562580   -0.03145209976212
O           0.94462972002673   -2.50559324362648   -1.48000640383492
H           0.16776244005326   -2.76451174022306   -2.00992755713349
O           1.55950839287020    1.94079960659050   -0.42592622338079
H           1.69558053462934    0.98397593065540   -0.28842721717204
H           1.33634159252259    2.01946468975254   -1.35686942061729
O           2.11914307469173   -0.14791345631875    2.51563156153913
H           2.63289539445242    0.66171702415843    2.46576487112077
H           2.12000702030746   -0.51465314345839    1.60807430084306
O          -1.93066282706243    1.07349280267705   -1.11378604741417
H          -2.44033130745100    0.33157550077583   -0.78160521988432
H          -1.12162891550652    0.68199987055211   -1.50543923981048
O          -1.52403371362842   -2.30788949156411   -2.43196166122449
H          -1.31500785430286   -1.49467928982852   -2.90454194521132
H          -1.58498660420632   -2.05932058581264   -1.49644014114194
O          -0.73187769332144    2.37948649481182    0.89691894272705
H          -1.31401305818479    2.10587906538658    0.15565547276852
H           0.16250626908743    2.42379030067894    0.49191517433369
N          -0.51746812905203    0.11297452913383    2.13892119328149
H          -1.18072304849327   -0.09294080738224    2.87769591484521
H          -0.62799807320258   -0.55648226457084    1.33224005464416
H          -0.65609808267086    1.10854748432812    1.72889398564040
H           0.47364355645070    0.02707037026141    2.47542876364993
