    26
        -50.46293965  Gyration_radius:  2.72147277351 Dipole_moment: 5.519
 S           0.32111975004334   -0.84230645831055   -2.34833935629008
O          -0.04200013398788    0.38688782534111   -3.03130130058912
O           1.58782402001367   -0.73804862403683   -1.65286617052372
O          -0.74918129676394   -1.34475877126705   -1.49975344639123
O           0.52633422549866   -1.94737445336512   -3.46919672529872
H           1.34283767463047   -1.64675994410404   -3.85216684856159
O           1.60658747535265    1.15221802389861    0.17634980020392
H           1.76566599158819    0.44196851808513   -0.48700410661465
H           1.00972382732357    1.77024489274242   -0.27759906707949
O           0.10459289835894    0.77010224775730    4.32705988766901
H          -0.39291542194428    1.53464211473101    4.62447832573725
H           1.02904918352865    0.92819277867089    4.53182820029670
O          -0.39818185733109    2.29722961847966   -1.33931501618672
H          -0.26057023958659    1.58453682092071   -2.02209346139085
H          -0.51716431977365    3.10967213412497   -1.83348026535650
O           0.00288507824635   -2.66012548525646    0.64205939450759
H          -0.67643970689357   -3.32938746669706    0.74033209627959
H          -0.16821889190715   -2.23474072313991   -0.23110270406762
O          -2.04143829562149    0.50278646577993   -0.04564376586351
H          -1.76811697337448   -0.21719504600699   -0.64942306658914
H          -1.66359411536171    1.30393938898889   -0.44511873174899
N          -0.12614343653384   -0.16756486776979    1.66216247809922
H          -0.15024297314976    0.04704255186919    2.66318639407776
H           0.00181488723097   -1.18501595313365    1.47769117943713
H          -1.00776889187165    0.12722277598922    1.16066960838224
H           0.66354155229015    0.35659163571325    1.17858665786408
