    26
        -50.46350201  Gyration_radius:  2.47234930571 Dipole_moment: 1.598
 S          -1.35397351890814   -0.55665457789028   -1.34067708898008
O          -0.06945787787515   -0.32244365798216   -1.98623535083998
O          -1.49071732181486   -1.90281368293301   -0.82792047022906
O          -1.65540074182876    0.45485675005228   -0.34237802378434
O          -2.45758687081742   -0.40448592923033   -2.47195707050600
H          -2.41231991312041   -1.25868625859417   -2.88813158586272
O           1.76281917687892   -1.08678311513900   -0.13434357224370
H           1.16653633066535   -0.89761228000644   -0.88047828033528
H           2.08853926994946   -0.22753515562620    0.16792533257196
O           2.31160007011380    1.62556602627617    0.40150750668400
H           1.84247502156440    1.85998347800312   -0.43799534002611
H           3.04244417596148    2.23773628660026    0.49336274296901
O          -0.05414324469404    1.75814726115119    1.74879499396839
H          -0.60392018391941    1.79248178176832    0.95433220777257
H           0.86241559846186    1.72408036286914    1.41790100893525
O           0.07666092836965   -2.62817460320678    1.21639035777420
H           0.88315421778435   -2.20482779810253    0.84685955780046
H          -0.51592200084652   -2.68190731000856    0.44161019181575
O           0.94219377057217    2.08487835123793   -1.81779536752812
H           1.38784990530682    2.18695002808388   -2.66061730515178
H           0.46761144192062    1.22167443633966   -1.87398173591415
N          -1.25750698366331   -0.56722563801280    2.03427035961946
H          -0.66675142330777   -1.45798232878383    1.85799427978472
H          -1.97982903044285   -0.71430176246375    2.72971899011102
H          -0.65798054595502    0.26703723096360    2.25393033697595
H          -1.65879027035671   -0.30195788536511    1.09791330462336
