    26
        -50.46276877  Gyration_radius:  2.52138525998 Dipole_moment: 7.616
 S          -0.18198379468554    0.66710314403000    0.42408260828571
O          -1.28165918790597    0.87141888275475    1.47415391934892
O          -0.68219770769043   -0.26401749692265   -0.59247609818204
O           0.03821036368897    1.98453585855910   -0.18570770500238
O           1.01671673394155    0.16516091540536    1.07538627911423
O          -1.45078486149563   -2.59349276867701    0.39649916196863
H          -2.27549411693126   -2.79923436708110   -0.04635545302381
H          -1.11295816865619   -1.76910325903719   -0.01599351474178
O           2.51579498092990    0.77824994520916   -1.01728934011138
H           2.08518871475504    0.44997356695791   -0.20202802721323
H           2.48465108146336    1.73391674422489   -0.93796244676103
O           1.11010117884105   -1.19256077091676    3.36856931519344
H           1.20355364154830   -0.75787911128635    2.49667489263600
H           1.41968626205323   -0.55760189847169    4.01644911080164
O           0.83703759107849   -0.34612760886626   -2.76064767622632
H           1.66128302651884   -0.05122197734548   -2.31638991809899
H           0.28424722749143   -0.65678869388031   -2.01463653629507
H           0.04696367902851    0.93142994105421   -2.88069089853984
O          -1.49353191945410   -1.29781774209627    2.74322732905930
H          -1.52573326028813   -1.94361848786553    2.00562411063017
H          -0.59725363921712   -1.39384463910179    3.13236218449125
H          -1.40727233521877    0.00446461143500    2.02245893062970
N          -0.54677333659315    1.82084118924125   -2.64843745695640
H          -1.53363677233641    1.61755367723878   -2.76808013105363
H          -0.27287330531562    2.63106774002448   -3.19399882990361
H          -0.34128208554876    1.96759259541262   -1.57479379005082
