    26
        -50.46768688  Gyration_radius:  2.47875301919 Dipole_moment: 3.005
 S           1.63643759293038    1.02756440849679   -0.94807597235892
O           0.93671255114291    2.25970673709975   -1.23492834234187
O           1.95915978111693    0.84937844792566    0.45781644757289
O           0.93452243439495   -0.13827672974214   -1.47549260332457
O           3.02012135008517    1.11352373210375   -1.71262337515294
H           2.78947766756900    1.63596864769134   -2.47364641878186
O          -1.52423123461724    2.31236252348784   -0.25737785211102
H          -1.90430117984517    1.49709693749495   -0.61510393172548
H          -0.68649813770844    2.44718173383783   -0.75084494813825
O          -1.08823408251972   -1.04577362252316    1.60681508454081
H          -1.52122192028576   -0.84175917961337    0.74856407999698
H          -0.26034749592639   -1.49787808264455    1.34138972079826
O           1.16536632411490   -1.95011268822423    0.40671427463181
H           1.95783246170598   -1.70002693097415    0.88604909711876
H           1.12251524937579   -1.31358340898087   -0.34465560069618
O          -1.25205055485078   -3.13115067997157   -0.73270460358822
H          -0.31917394980194   -2.97034397382454   -0.54309133822074
H          -1.63514412734597   -3.47519416507109    0.07695466130233
O          -1.66927739840899   -0.40647331201739   -0.95436655982003
H          -1.83362067770274   -1.33514511838152   -1.18558435136608
H          -0.74751957885580   -0.25357074797566   -1.24891107461483
N          -0.21451854252349    1.40368587240715    1.82549847218973
H          -0.82702419027205    1.89577340356638    1.10255944349768
H          -0.61014994919099    0.41714214223498    1.94245423789511
H           0.73484709998871    1.28590217271270    1.38316637326268
H          -0.16367949254873    1.91400188089401    2.69942505942464
