    26
        -50.47144452  Gyration_radius:  2.51496582363 Dipole_moment: 3.799
 S           0.35695512298662   -1.62565374131794    0.41835162802171
O           0.26062247069947   -1.08218656118050   -0.93131502574067
O           0.48078017325600   -0.51219389012018    1.38342063871315
O          -0.71521491961812   -2.52139820163447    0.74668035474671
O           1.69280393561440   -2.43936718016897    0.51248103956729
H           2.39246895556601   -1.76836941341354    0.50135834021855
O           1.96328657780042    0.90973343168953   -1.42659414345859
H           2.62422379184534    0.71216562002766   -0.75125224344942
H           1.32393695844343    0.16800562105645   -1.38092716769618
O           2.99434058283793   -0.11297031264857    0.95812145562322
H           3.52948080152125   -0.00961702907418    1.74702159820872
H           2.04983046100335   -0.09113930584097    1.24588515362621
O          -2.16421762831627   -0.03746117282521   -1.36056252751678
H          -2.72582000833089   -0.63903428925292   -0.82688612100477
H          -1.31219859022521   -0.50738273498727   -1.45726614974692
O          -3.19768761382250   -1.68020598455834    0.47512185996455
H          -2.29464449995286   -2.01982361610959    0.66684182269518
H          -3.73470751667638   -2.45658543007982    0.30802020285249
O           0.56685943942916    3.02481525495835   -0.76088225938119
H           1.17583200974092    2.28313432267817   -1.02969433112674
H           0.24346328082588    3.40015156447654   -1.58154617555328
N          -1.11529760326707    1.42106504358971    0.52847465284918
H          -1.65613029106585    0.92702802983879   -0.26099149342671
H          -1.74289258599040    1.81261392387002    1.22183070592941
H          -0.49855363092236    0.68546149033226    0.96087521490480
H          -0.49751969338409    2.15921455069728    0.09343296018346
