    26
        -50.46894422  Gyration_radius:  2.47594332392 Dipole_moment: 1.254
 S          -1.69931818759063    0.92607405222977   -0.77696231503013
O          -2.19088931141486   -0.30080985154259   -0.13750491151698
O          -1.09750328579320    1.81459712477238    0.19108171016198
O          -0.85929374350481    0.63838519403950   -1.91929340188826
O          -2.97653067437940    1.67192125116780   -1.34142259283319
H          -3.30405297475548    2.11524521592754   -0.56612627650429
O           2.72756210614501    1.08067515446962    1.05515326121717
H           3.23081418504563    0.28032249010581    1.21487378067782
H           2.35194912385452    0.99406173214058    0.15949356092487
O           1.20506510976684   -1.95145335878789   -0.22106125515842
H           1.55987836512355   -1.15573784919766   -0.65116772486515
H           0.46473733207880   -2.23291605006737   -0.80627718265198
O           0.38548217127837    1.34562830224116    2.37181684559115
H          -0.16494269364365    1.73820064072466    1.66659764401377
H           1.30284429175212    1.40519746316925    2.03549555792419
O          -1.01033190345118   -2.12629405150792   -1.71562827529565
H          -1.59238164025566   -1.59468803279425   -1.14110305233764
H          -0.82746022889588   -1.53824496966825   -2.45499359998160
O           1.67785497008870    0.49543311809451   -1.40004298523453
H           0.70870151783908    0.61720053918645   -1.56836376723929
H           2.12239196698875    0.83720708886924   -2.17765637228666
N          -0.40260913914769   -1.03120188475781    1.66119702579303
H          -1.21093601709328   -0.77292972537060    1.03897218511816
H           0.33253418653019   -1.45877407126356    1.02206229505887
H          -0.04002684384719   -0.10948282237364    2.08389415116753
H          -0.69353870271404   -1.68761670980004    2.37696572517407
