    26
        -50.47031934  Gyration_radius:  2.49273372817 Dipole_moment: 3.310
 S          -1.73110455728798   -1.03366916467334    0.35714741224057
O          -1.96480240578880   -0.19599793118563    1.52657165048129
O          -1.95798670284379   -0.28869107670434   -0.87817952608035
O          -0.45726483414287   -1.71078219858976    0.38581270619966
O          -2.83797878595718   -2.16587517714962    0.39384097580731
H          -3.64559163963814   -1.66349272180675    0.42543253399143
O           2.03364096711926    0.92750321929311    2.36925871308355
H           2.18160166972055    0.29045030362982    1.61625891124873
H           2.02977983220425    0.38951708826673    3.16248430250184
O           2.08504941252855   -0.79627393318035    0.41539585488890
H           2.10825455309131   -0.41194117986791   -0.47560495226400
H           1.21187413126769   -1.22402351313090    0.48564594618119
O          -0.24983103981500   -1.72876963936823   -2.30062650272547
H          -1.01216597304062   -1.17941261774113   -2.03708407969789
H          -0.06249909628970   -2.22416068630384   -1.49164568668945
O          -0.31576602253969    1.79918119305318   -1.14320959315657
H          -1.02159295907128    1.12035314328411   -1.16652549932848
H           0.46359962791997    1.36276925312374   -1.53455732644479
O           1.60484392709245    0.13554564256493   -2.15378401921553
H           0.94317351865651   -0.59431614957573   -2.30034427866847
H           2.12669364468819    0.19569933490834   -2.95458092823348
N          -0.30335261319008    1.81958129247303    1.47699737342277
H          -0.99534141825123    1.02486479127298    1.59873294871755
H           0.62794488101854    1.53724946038942    1.88951748231652
H          -0.20931997091173    1.94774022611087    0.42134495655534
H          -0.65185816656302    2.66695104091791    1.91170060489225
