    26
        -50.46723971  Gyration_radius:  2.42768972278 Dipole_moment: 6.269
 S          -1.12580367584943   -1.29133069182724   -0.63827886334662
O          -1.23300209196377   -2.21743146543656    0.48070902970381
O          -1.77226782709893   -0.02217127092472   -0.34044681411865
O           0.23896865690447   -1.13298152609531   -1.09601187749053
O          -1.92192760088578   -1.93430718013294   -1.83671344271504
H          -2.79323695420324   -2.03609785776687   -1.46880632080617
O           1.68201947831258    1.75755439055811    0.41126788020614
H           2.18128211315244    0.94138127808280    0.53939958579722
H           1.45107533560564    1.75848689777164   -0.54886275588396
O          -0.53447710222035    1.20364613155719    1.68901923088154
H          -1.10594895496901    0.88891030020332    0.96059769528314
H           0.27997865518625    1.57290025153626    1.24701402036102
O           0.90861414185812    1.32779287112089   -2.09755908566266
H           0.04387547867559    1.74572584933537   -2.25872424014225
H           0.70667789340636    0.39470142938690   -1.92245457696866
O          -1.71740777199252    2.10131752281751   -1.98370171105858
H          -1.83609638596527    1.30827224322376   -1.42707406585105
H          -1.87853418611992    2.85521494259155   -1.41318720755063
O           2.33027570949036   -1.03896631469482    0.49741166627059
H           3.07853108029446   -1.47387728415049    0.08617883578156
H           1.59324639922307   -1.08752851243097   -0.15677833952727
N           0.29820946004467   -1.14338386943083    2.29149894879137
H          -0.04549895077837   -0.10256832773340    2.19263860010770
H           1.24631922387066   -1.20088240619998    1.88575265552962
H           0.27344701060123   -1.47705267621311    3.24841432535949
H          -0.34831912457799   -1.69732474514921    1.65869682704881
