    26
        -50.47026226  Gyration_radius:  2.45468771592 Dipole_moment: 3.229
 S          -0.52407089741821   -1.72785872497631   -0.19841895142186
O          -1.72944505283530   -2.11780688896250    0.49190455530294
O          -0.74453703137811   -0.94600438379078   -1.39870588401123
O           0.43941801096343   -1.07360035618791    0.68801530853067
O           0.16060294480540   -3.07877797795441   -0.67969652264231
H          -0.19011158216125   -3.74101097559333   -0.09261758643883
O           2.05109088729515   -0.94256189638580   -1.49005728293385
H           1.42881862127279   -1.24496519006552   -2.15585891320045
H           1.59643150149252   -1.09084156835305   -0.64602367761679
O           2.08298955286012    1.04414273540330    1.57233478493984
H           1.72793796212061    0.16753913279854    1.36797335054288
H           1.37974651072361    1.50250579345198    2.04059182747264
O           2.26990281045424    1.70844484077408   -1.03784607258134
H           2.43235929223314    1.63583039258382   -0.07464161860280
H           2.41276829383571    0.79800619243617   -1.36916532716825
O          -0.90378518621317    1.10193100369517    1.55933269243128
H          -0.43926462251563    0.25307757537950    1.43288208103139
H          -1.85269374519534    0.86910679319533    1.50562524618619
O          -3.26469546985069   -0.01254980375584    0.98100826298103
H          -3.96515939554055   -0.29331155774053    1.57253800716367
H          -2.77985981551148   -0.82896805559857    0.73165247816036
N          -0.33118563005426    1.63143865118641   -0.97663443058502
H          -0.59119961697907    1.65709465759726    0.04663921498437
H          -0.86037650343374    2.30497665883301   -1.51848618138099
H           0.73722830442312    1.77601453152465   -1.06864798425085
H          -0.54291015340122    0.64814843050617   -1.28369736688914
