    26
        -50.46276877  Gyration_radius:  2.52139031696 Dipole_moment: 7.615
 S           0.00281167286313    0.69131597270093   -0.42475138546767
O          -0.89836415606150    1.10711417248655   -1.59465481787194
O          -0.78808208750915   -0.12996312808224    0.49753603954354
O           1.15567371787927   -0.02938353376904   -0.93912623886254
O           0.39205865872576    1.93961540644883    0.24325118550577
O           1.27262828604427   -1.37278917458710   -3.23964827063141
H           1.33809395104286   -0.96682765853609   -2.35147818694164
H           1.77627611140797   -0.80772374073436   -3.82770546383452
O          -1.85837407029221   -2.26421637366240   -0.64046072569031
H          -2.75574035311209   -2.30854752590107   -0.30673969539809
H          -1.42332673305497   -1.52184579037273   -0.16766851340334
O           2.47196696455624    0.27685701485335    1.33597925643623
H           2.63276548177515    1.22109531514168    1.27981746753310
H           2.09158176547479    0.04039869946398    0.46581265128687
O          -1.36048483809199   -0.97643151145199   -2.93862742562598
H          -0.45761122257077   -1.24201134555424   -3.21838244639452
H          -1.60693254245590   -1.60646497609288   -2.22834485645927
H          -1.11782233876094    0.28242470965872   -2.17751937182759
O           0.40635793992506   -0.51058086921281    2.83086105396899
H          -0.09829686413150   -0.70643381829298    2.01503692383809
H           1.32040733894472   -0.37784811409257    2.49819253060622
H          -0.13494503851184    0.89450598342341    2.88940571151748
N          -0.51514756547616    1.88226548887185    2.61133909161581
H          -0.15353726027800    1.99079657291630    1.57501707213849
H          -0.16221458717502    2.62275572881834    3.20821081373506
H          -1.52974222115748    1.87192251555421    2.60464759068137
