    26
        -50.46451100  Gyration_radius:  2.69303791833 Dipole_moment: 3.150
 S          -1.32076410875890   -1.99948290156815    0.10552500013607
O          -0.58913486205756   -2.84385718526265    1.02749829615433
O          -1.39163307138974   -0.61763120295389    0.60054180066636
O          -0.84902298070623   -2.04991756201247   -1.25738351687396
O          -2.81168477443453   -2.53410564342421    0.09665130607610
H          -2.96824874639002   -2.69678096229130    1.02121764005653
O          -0.70914967493987    3.37630576740351    0.18192431230248
H          -1.02427751543880    2.65891348746706   -0.42246956168408
H          -1.42961362303962    3.53026115188388    0.79434906847411
O           1.96037534414975   -2.26513414706234    1.23381220253153
H           2.22584336597368   -2.55472191287305    2.10814149518028
H           1.03352527742166   -2.58679302851432    1.11543531656651
O           1.62166338491186    2.63378998168470    1.17649839799612
H           0.74426269613257    2.97501757091315    0.86884289934796
H           2.28032518562849    3.19008707579778    0.75859848541088
O           0.62998343803621   -0.20266076307070   -2.30699019625189
H           1.07112813506505   -0.54199407467681   -3.08674935250991
H           0.04309643367202   -0.93621795484687   -1.98588185569252
O          -1.54863802283046    1.31395898663878   -1.26552987980586
H          -0.88584634342351    0.98318037092941   -1.88454117238611
H          -1.66141134256887    0.60562738592962   -0.60300168505524
N           1.13761578512019    0.12540809889903    0.35102298564478
H           1.43170407320960    1.05357604218149    0.73732309095162
H           1.67717244218432   -0.67644523246252    0.74062951766516
H           0.12858779015064   -0.06048824195068    0.57701851908865
H           1.20414170431868    0.12010487324454   -0.68248310398549
