    26
        -50.46540198  Gyration_radius:  2.39812771508 Dipole_moment: 5.416
 S          -0.61560289052031   -1.00091471701972   -1.30384809981298
O           0.75084864686469   -0.92592436434883   -1.80957448810502
O          -0.65973965879273   -1.78708012846119   -0.07489903656148
O          -1.24552249707314    0.28766574993001   -1.18023565657480
O          -1.44125565681997   -1.80804782929565   -2.37864334007985
H          -0.93912917135820   -2.60960574730477   -2.48382545865275
O          -0.04907209555747    2.08400280254312    0.41843002599604
H          -0.33123675268299    1.77649398527310    1.31908628437022
H          -0.62424924847723    1.60264165491719   -0.20552399490864
O          -0.71591448303688    0.76975538133981    2.59831070033672
H          -1.54156013744582    0.36384034589546    2.26191489886314
H          -0.05384629087778    0.06479146193431    2.57141604335918
O           1.17598606477730    1.70795369642724   -2.52961753611965
H           0.34896438920796    2.16562373221609   -2.36688234291559
H           0.96255699749141    0.76510909677349   -2.52875763409682
O          -2.64865169611177   -0.45608094310411    1.14638632572992
H          -2.85637284565376    0.15581752406579    0.43460769396087
H          -2.01364224948085   -1.07986997261118    0.75342446215827
O           1.09016163145137   -1.28322627026825    1.81859670841494
H           1.20843071053803   -2.07323495390798    2.34803049918863
H           0.43611447453986   -1.51934936467344    1.11727696841291
N           1.98899347123144    0.55901786445407    0.02267635635115
H           1.21735319070916    1.32474019216413    0.18376244386366
H           2.87627096444573    0.98541805641505   -0.22364524309615
H           2.04139134110927   -0.03517592654331    0.86071325987704
H           1.63872379152171   -0.03436130680993   -0.76917981995828
