    26
        -50.46387602  Gyration_radius:  2.50389076212 Dipole_moment: 5.984
 S          -0.09619136685870    1.80919937232614    0.13567487356910
O          -0.56078201235214    2.20262731077981    1.43647824002535
O           1.24687843554204    1.24545859514620    0.12257100721459
O          -1.02329724151880    0.95038846442407   -0.59620841892675
O          -0.01759436962885    3.14370391219988   -0.72326326895820
H           0.16304051328765    3.78393717219238   -0.04412463969742
O          -3.01155131333534    0.12393565929494    1.04827149226813
H          -3.38951056154057    0.93003776716999    1.40536187533737
H          -2.34794996852726    0.40849191128038    0.39511260211710
O          -0.90670854204505   -0.12766945116568    2.80368572950097
H          -1.73768191471597   -0.34742042626566    2.34842844559405
H          -0.72332205406353    0.78745428196426    2.53295224829739
O           0.28124513665151   -2.90393513850576   -0.31362938471132
H           0.54867442424936   -2.27754795851535    0.42345149993611
H           0.94197936020771   -3.59744057695384   -0.32059544484965
O           2.40143934634036    0.27619340076500   -2.00931036274166
H           2.03361535038393    0.76890258363407   -1.23608621081723
H           3.20860073179015   -0.13351555809377   -1.69211849944868
O           1.10115756699581   -1.14394458651088    1.39851564376209
H           1.27597445463022   -0.29266656459675    0.96223075347861
H           0.40028109237822   -0.93192864397169    2.05773724476349
N           0.03635435488894   -0.94918357760072   -2.05424695280007
H           1.00490590669616   -0.58192799912991   -2.22337120060100
H          -0.46029940490674   -1.12928707622089   -2.91965819503357
H           0.09067903375449   -1.81683196891369   -1.44354211018610
H          -0.45993695830554   -0.19703092473339   -1.49431694709539
