    26
        -50.46907700  Gyration_radius:  2.50243655909 Dipole_moment: 2.800
 S           1.49872426393392    1.33404696601751    0.20821248679954
O           0.18059095650908    1.33402033429907   -0.41755127163125
O           1.39909397307087    1.67353177440433    1.61902863292409
O           2.23625185380127    0.11530811308512   -0.04284417080000
O           2.32601726469903    2.49186024230047   -0.48039621025326
H           1.85128682366953    3.27767469975644   -0.22917446999799
O          -0.48481104026351   -0.98060351475454   -1.53292812112132
H           0.24412138432551   -1.15519372152196   -2.15195632733590
H          -0.29204222151997   -0.07476124616423   -1.20636206594892
O          -3.11984300050008   -0.89380888078349   -0.89487946206605
H          -3.37653253182139   -1.77755683926289   -0.62870942831794
H          -2.24147631248439   -0.97425420243027   -1.30985310839547
O           2.04614966131977   -0.93844507566297   -2.50646004115364
H           2.78699259776350   -1.53378524228159   -2.62845000705966
H           2.20155589754490   -0.48310531942238   -1.65499931872552
O          -2.29619497392783    1.13341774476277    0.71287826714602
H          -2.75576490073959    0.46942624070180    0.15999064510007
H          -1.54473263009642    1.43627263901909    0.17419626148727
O           0.54233431439780   -1.79611692365882    0.80303656754880
H           1.34981764259775   -1.28201369007504    0.61859637275093
H           0.04736618541669   -1.73871379762162   -0.04367546142793
N          -0.53499609404661    0.06146185490015    2.32079139172608
H          -1.37667165854329    0.45425119481056    1.78963817147347
H          -0.19017593666681   -0.81256206597958    1.82136248004330
H           0.24203866536857    0.76869839355643    2.20137017062806
H          -0.73910018379285   -0.10904965796565    3.29913801663104
