    26
        -50.47676521  Gyration_radius:  2.44750449527 Dipole_moment: 3.267
 S          -0.65019575522654   -0.13906134473848   -1.29806054287285
O          -1.29305394473656    0.66146546436344   -0.26160575748098
O           0.53300554791363    0.54885132122825   -1.82300221320282
O          -0.34709585878281   -1.47741201805142   -0.83465609811546
O          -1.66319786094707   -0.29466308997742   -2.47453297082648
H          -1.69841032383476    0.60125932881724   -2.86223253427016
O           1.67907134592710   -1.80041889280703    0.86283022478310
H           0.99827859322171   -1.86422449418086    0.16030944669829
H           2.17368684002237   -0.99421188842402    0.63908236132028
O           0.29683491558554    1.54043525612651    1.68017177516894
H           1.15282243515532    1.45925100585127    1.22868163045948
H          -0.36836226908149    1.40367114447820    0.97172751398365
O           2.35651447129994    0.73346262704820    0.02390651218918
H           3.13996588260999    1.12500200202697   -0.36562692618077
H           1.69149255922814    0.66348384390204   -0.70740906663559
O          -2.16374037061869   -1.38150145706200    1.15033221373506
H          -1.75068779287107   -1.94988924062020    0.48439145191297
H          -2.11804175023590   -0.50285574718839    0.72025542738068
O          -0.95898454817017    2.11454044439132   -3.30980234155161
H          -0.61468929421524    2.16089057352198   -4.20466219298467
H          -0.24017804214169    1.75617027661767   -2.75142777433520
N          -0.03057359649455   -0.88404527767115    2.63607868571772
H           0.72509142690717   -1.37324111129478    2.06645432620278
H           0.09493734922251    0.15637944098319    2.44096372498626
H          -0.96082534053470   -1.15796514091322    2.20435115122357
H           0.01633538062186   -1.10537304664329    3.62348196259687
