    26
        -50.46276867  Gyration_radius:  2.52147073508 Dipole_moment: 7.618
 S          -0.07838307137950    0.77727750477618    0.21561502330907
O          -0.67967767225109   -0.29770595866944   -0.58034317428850
O           0.42992866722666    1.82339655402438   -0.68062747564630
O          -1.18524470010431    1.44013100107523    1.04583779670408
O           0.95623395284610    0.27797177471917    1.10637294505849
O          -1.94233315904254   -2.10778046168139    0.87744855394693
H          -2.76029566343989   -2.28573906493541    0.41068478555699
H          -1.42690729092328   -1.49520888827984    0.30916020591460
O           2.67940829046790    0.03950465004867   -0.88767992267080
H           2.14111840866454    0.02192692050064   -0.07049209308116
H           2.82710175377320    0.97197998061142   -1.05869997643747
O           0.63729006661934   -0.39587529477306    3.66684119307486
H           0.86938457487663   -0.23867512708777    2.72909073315404
H           1.01723181882832    0.33294152312173    4.16016024486491
O           0.93510403511041   -1.21923064169435   -2.46733178546326
H           0.41376337350341    0.09132233861356   -2.99845549527396
H           1.76947027538351   -0.95682322939596   -2.02161309338781
H           0.28515667418320   -1.21886796494629   -1.73512500237113
O          -1.89144134700039   -0.23438285099243    2.79459018966458
H          -1.05779978490015   -0.36850494359418    3.29556332005093
H          -1.51021740476398    0.78871853057514    1.77952082339935
H          -1.99752701237106   -1.04187858077959    2.24792188882039
N          -0.01288708261809    1.09636270761472   -3.07011508875936
H          -1.01044179525499    1.03577969244815   -3.24543315506960
H           0.44573846178515    1.67039144883378   -3.76961058361503
H           0.14622563077467    1.49296835986817   -2.05328086746123
