    26
        -50.47242510  Gyration_radius:  2.55445134164 Dipole_moment: 4.209
 S           0.78271361808526   -0.52309448387459    1.45302907294915
O           0.66858029505252   -1.79238362840801    0.74527701835395
O           1.88057167719767    0.27610710897688    0.92114684222048
O          -0.48148449392332    0.20398891643834    1.43755154929400
O           1.08916487639320   -0.82866107170683    2.95323342424207
H           1.93262240870264   -1.31760893837433    2.89797566635177
O           3.17573979083969   -1.95795462289067    1.78753787940446
H           3.26616839774117   -1.08517669459450    1.38143597376195
H           2.49138571979426   -2.40075111884583    1.26675281779885
O          -0.06862695434446   -1.33954011241836   -1.75469329923678
H           0.39947339269314   -0.49837347671080   -1.89882794938742
H           0.29812572488834   -1.68396699632089   -0.91123336103144
O          -0.71763799833287    2.46245782305164   -0.08177088550355
H          -0.64689708751856    1.83280774452461    0.65606373265621
H          -0.02569242680418    2.18122676717460   -0.70157783894804
O          -2.97525862468581    1.80552926150742   -1.25259276585489
H          -2.20063303454935    2.20694097182559   -0.77458682544026
H          -2.90212940277213    2.08792442067587   -2.16544163100177
O           1.24592897803245    1.06189779872089   -1.46599537700391
H           1.52926210410638    0.78781766690968   -0.55450350682730
H           2.03329282521308    1.40078654068706   -1.89569312877554
N          -2.18668439149006   -0.58968090249787   -0.41220209638026
H          -2.63636514386357    0.28541299690725   -0.79109882122875
H          -2.87399258895324   -1.29481537300140   -0.17173347554116
H          -1.46136801383119   -0.96129181030944   -1.10284333651066
H          -1.61625964769625   -0.31959877741509    0.43479030162797
