    26
        -50.46859013  Gyration_radius:  2.49856675881 Dipole_moment: 4.133
 S          -0.48680552653986   -1.58699712971043   -0.24056319966885
O          -0.61252273973925   -1.63690575984302    1.21290820715196
O          -1.17635665678760   -0.40487494635894   -0.76310864312233
O           0.89004289702732   -1.63829311463881   -0.68821154251436
O          -1.20328852049692   -2.84533804987980   -0.82827621404755
H          -2.11904191212671   -2.74191831687253   -0.50319364655282
O           2.32841321884474    0.27295814119413    0.52250398911998
H           1.83078353284780    0.36325025774504    1.35070432126522
H           2.04418022595152   -0.57879690843199    0.13991126635233
O          -3.22128948212507   -1.72658355412007    0.46643507995628
H          -2.99896367639637   -0.94432348129372   -0.05589343056931
H          -2.56421216757613   -1.73892785605894    1.17676490129232
O           1.32208964341248   -0.17387025713173   -2.94549775829319
H           1.58209266845249   -0.75225988396165   -3.66326196473640
H           1.17600057238678   -0.75672559863215   -2.17709918245614
O          -0.15858930893308    2.99379786967932    1.14084376397478
H           0.32330375918476    3.61212988238067    1.69183831395874
H          -0.12469376012000    2.13302456556517    1.59780763041022
O           0.25637731940225    0.53030409772421    2.34361825227497
H           0.17002037698976    0.37540810072787    3.28613442821670
H          -0.11307111358021   -0.28233042565741    1.90856074061034
N           0.57257375266980    1.54003132923141   -1.01223001122131
H           0.82497986098180    1.66606606810260   -1.99082604584845
H           0.24842912378874    2.38373205070080   -0.51592610448019
H          -0.18930642729850    0.80417299483309   -0.96994339696828
H           1.39885432978883    1.13326991470976   -0.48399973410990
