    26
        -50.46712769  Gyration_radius:  2.54415284229 Dipole_moment: 1.914
 S           0.31182479326141   -0.65317721623653   -1.29105363664220
O          -1.11033749442833   -0.38895819160502   -1.06377417393880
O           1.02233719040585    0.56750829417134   -1.64694731973373
O           0.89716326688946   -1.32711205469648   -0.14722245595123
O           0.41344781252270   -1.64081064476897   -2.49602514877040
H           0.23288041326246   -1.07195713414322   -3.27249496873827
O           1.13191334058517    2.01323606066293    0.62219790839491
H           1.22560998503175    1.52410497438706   -0.21751674826348
H           0.18593110026185    2.17232182622201    0.71891004613174
O           1.99178373060960    0.80717032912814    2.83405032102182
H           1.77316911776535    1.38236511522714    2.06106653849032
H           2.80921769731851    0.36365241332585    2.60082173595412
O           0.24238708789596    0.42056356113572   -4.13577931292202
H           0.97793908179362    0.56892747010263   -4.73451347502307
H           0.52413242960206    0.76233571177579   -3.26153611686057
O          -2.07600362000093   -2.03746146949464    0.84945750721121
H          -2.30748954628578   -2.88032899150405    0.45849524988835
H          -1.77233473987316   -1.48041994946499    0.10707958780657
O          -1.63089785534227    1.34567154764123    0.79471311202793
H          -1.47263271761868    0.77838721544988   -0.00269444908503
H          -2.58211505828210    1.44844294450680    0.85804966481819
N          -0.16550257632098   -0.54243040492813    2.10932556048445
H          -0.81884870333958    0.20714152635256    1.79734411178049
H          -0.68564517096659   -1.27301622905482    2.58698421900019
H           0.25459176580212   -0.94997330808549    1.22049572568640
H           0.62747865943546   -0.11618341609741    2.65056650722960
