    26
        -50.46704699  Gyration_radius:  2.51641172226 Dipole_moment: 1.879
 S          -0.54716502254839    1.74104910868435   -0.24243969785288
O          -1.21974556535994    1.57249973186645   -1.52986823607561
O          -1.33586926256815    1.19379149325492    0.84971367980282
O           0.81440979229045    1.26650111150759   -0.25384488683801
O          -0.47314707161559    3.30803062311441   -0.00708311935307
H          -1.36963039217142    3.58615566704215   -0.16569520664869
O          -2.00673209205857   -0.84126457733684   -0.80013780637307
H          -1.94238851103384    0.00242025847861   -1.28811718139661
H          -1.95769936708720   -0.54625393834611    0.11921342211113
O           0.78561225216730    0.56254771801186   -2.91988946322167
H           1.47449947268357    0.90058298437385   -2.33656295443210
H          -0.02620857227943    1.00020413371779   -2.58360360280673
O           0.83624323982957   -1.77390122640184    2.64068558717616
H           1.51787205157394   -1.91261047177398    3.30019183551880
H           0.43038686443393   -0.90091518434711    2.85110122674048
O          -0.21340155979563    0.62718004392212    3.15128103070808
H          -0.56267263138080    0.89298364727657    2.27032301467148
H          -0.96286552313325    0.66728240294294    3.74829741995406
O           1.89956347376104   -1.13781783746445    0.27106963133256
H           1.66102838344190   -0.19344542312655    0.20149029235817
H           1.53381448362068   -1.43826752417549    1.13441882470986
N           0.33072592495793   -1.75225041955093   -1.69803915040164
H           1.02215803628716   -1.64911389361184   -0.87442476394309
H           0.40557534777634   -2.65049271356096   -2.16071120047279
H          -0.63970621723335   -1.57830948040054   -1.32748471469353
H           0.54534246544281   -0.94658624409649   -2.34988398057319
