    26
        -50.46846920  Gyration_radius:  2.43376973579 Dipole_moment: 3.916
 S           1.16270987768476    1.17742752923006   -0.80244909808580
O           1.09496387851206   -0.25745433955552   -0.67631970908734
O           0.28974354435046    1.72438719698010   -1.82275618853834
O           0.98196845547726    1.84380495583757    0.48663776461953
O           2.63839468695340    1.52194457429138   -1.27113942997202
H           2.53072762439837    2.40697572131037   -1.60282348998418
O          -2.19500683706012    0.95235097804997   -1.72771141561614
H          -1.26324039581959    1.26038006945904   -1.85961694760805
H          -2.75475244756406    1.61003904529858   -2.14308898251456
O          -0.87674259627654   -1.51498042267722   -2.03359710616452
H          -0.11359480234016   -0.97498599542264   -1.75993271062222
H          -1.62020194961497   -0.90056195762182   -2.04187561892809
O           1.74349797028251    0.25204904515151    2.42260990548815
H           1.81692700846308    0.84765779075025    3.17076858265827
H           1.55664689026090    0.82758924511428    1.64240562106705
O          -1.50012799732406    0.93536312182704    0.89509651071563
H          -0.65069784333127    1.40349775784658    0.77387463706316
H          -1.90980983766622    0.89547952502998    0.01028393678362
O           0.30158642104068   -2.86542813422847   -0.04161884396356
H          -0.29540584782425   -2.64231954452318   -0.78647575890647
H           1.10182628043040   -2.36577670794578   -0.24608549712414
N          -0.42361183650302   -1.24646571780785    1.90293345873871
H          -0.18306757546580   -1.95475843857845    1.13890889235060
H           0.47084293450517   -0.80125807969053    2.21963015023651
H          -0.98744410186956   -0.45158572093841    1.47862454633663
H          -0.91613149369654   -1.68337150717754    2.67371677106262
