    26
        -50.46909593  Gyration_radius:  2.3999238877 Dipole_moment: 2.278
 S          -1.73416345976469   -0.15489439483760   -0.47238897680141
O          -2.10135756911523    0.01854116903866    0.92691614812457
O          -1.22960645391057    1.08787360378026   -1.04041000370746
O          -0.85141900818454   -1.27835565605292   -0.68867207386073
O          -3.07115527952643   -0.49295385407591   -1.24433999614222
H          -3.65130232069978    0.22315401632797   -1.00582016282960
O           0.42967440308750   -0.04387902218600   -2.75079610446473
H           0.16506245813273   -0.91879925937212   -2.44122881556557
H          -0.21473837669807    0.54538003343945   -2.31215824041844
O           1.52235453048111   -1.24749876558594    0.56641691506712
H           0.70274908363834   -1.43730386291044    0.07044343317508
H           2.04891875047633   -0.67283642550317   -0.01556676818971
O           2.47220011862787    0.61876503282934   -1.22856580557600
H           1.76278229379753    0.38020417019587   -1.88466772170759
H           3.27646099062010    0.74814877897283   -1.73227882960265
O          -1.02113787323632   -2.12963361397157    2.27329587291632
H          -1.60104913532835   -1.50932414462655    1.81007650496960
H          -0.64999556376046   -2.69783816908484    1.59572447484953
O           0.82967896361882    2.32256684763835    0.19189592408077
H           1.55542763539284    1.89140774365746   -0.29373612049623
H           0.02362295185674    2.08227945336857   -0.30477141751710
N           0.27294008336397    0.54353556617603    2.03231826956754
H           0.57347953755814    1.40134977115647    1.47975519945422
H          -0.72567426601974    0.35909355970892    1.77881915637086
H           0.83739939180605   -0.27704704078066    1.65323634971595
H           0.37884811378524    0.63806444269479    3.03650278859358
