    26
        -50.46995856  Gyration_radius:  2.4366767278 Dipole_moment: 2.081
 S           0.51058299712638   -0.86282538246021    0.97524048653561
O           1.88245753775116   -0.38709168926518    0.87121334082786
O          -0.38846185713611    0.22713657615258    1.36858392039813
O           0.04952511314377   -1.50803553679518   -0.23943803281328
O           0.44892085422128   -1.93576404830836    2.10810613810263
H           0.79447867037140   -1.44619004147437    2.88072815114931
O          -2.98060076781200   -0.18161347714823    0.70767190152797
H          -3.50211083041111   -0.34010557166808    1.49494864708554
H          -2.06460709787891   -0.03069676452105    1.01309061260997
O          -0.32111146390120    2.03547586802831   -0.63008856176833
H           0.56931669768368    1.87510954700502   -0.99024120243864
H          -0.33737769036856    1.57584651291625    0.23115301590141
O           2.06844211724403    0.94678578802768   -1.37630271277284
H           2.05702014463209    0.39899826455514   -0.55543450158922
H           2.96658452213795    1.26939190449896   -1.46980049139066
O           1.41693913736084    0.10689444097769    3.46921629467131
H           0.64533220761964    0.62991916520231    3.22368779132389
H           1.98728572786922    0.12281488149680    2.68496434649055
O           0.54990671190973   -0.82565169466438   -2.98428034143528
H           0.56824090326724   -1.48079478650308   -2.27788064500112
H           1.14780191506664   -0.12930837156792   -2.67863556873039
N          -1.64844740010012   -0.01044589091866   -1.59675689957268
H          -1.55587817857308   -0.21410918532796   -2.59168574464335
H          -1.22771764305170    0.94036893183473   -1.35568550970035
H          -2.59479710012872   -0.07733540877611   -1.21486810573451
H          -1.04172523805418   -0.69877403128101   -1.06750632905518
