    26
        -50.47110241  Gyration_radius:  2.5182431729 Dipole_moment: 2.626
 S          -0.57487021187187   -1.77804628242602   -0.80830669537161
O           0.59042963391929   -1.41967590892894    0.00407343508495
O          -1.78842733225771   -1.22335543091557   -0.22027797039131
O          -0.41485229552490   -1.46098738378163   -2.20078402698699
O          -0.69535533527436   -3.34921927527129   -0.69833570065865
H          -0.63113250044383   -3.49395105213552    0.24012757029895
O           2.38862304460991    1.89729740982506    1.46597962478533
H           2.48942696458755    1.47554968010747    0.57668463531884
H           3.18338136167997    1.67902785526569    1.95372818860382
O          -1.99390581671230   -0.85999970602776    2.41228465741738
H          -2.91853161668132   -0.74777035450550    2.63696289353539
H          -1.97416345194555   -1.05427871263197    1.45031971679171
O           0.30610481726074    1.01692996175803   -2.56315046944986
H           0.29447972709570    1.23271258636019   -3.49711763026008
H           0.06170196424070    0.06118092949781   -2.49822204962420
O           2.38862753241039    0.49593060337682   -0.79575783081535
H           1.82924616632578    0.88314285676259   -1.48671833087812
H           1.93114856486040   -0.32383603406534   -0.54470165689294
O          -1.54881534278433    1.44069063915764   -0.58418375728548
H          -1.86123740001121    0.51724550936142   -0.58855543659752
H          -0.94796386519413    1.51680284701660   -1.34523796296465
N          -0.01560797500752    0.71964032665901    1.44984985045400
H          -0.60880634445942    1.23348019887966    0.74280273951578
H           0.29233542997267   -0.15634939698207    0.95800152723352
H           0.82831434967628    1.27229917130647    1.70703904985396
H          -0.61015007845994    0.42553894237580    2.23349562926047
