    26
        -50.46276865  Gyration_radius:  2.52142735045 Dipole_moment: 7.620
 S          -0.76199552269428    0.27548633469103    0.00959888139330
O          -0.85814364214194   -1.02042517289560    0.66116222650815
O          -1.52474895120390    0.31509828385026   -1.24442658626043
O          -1.38903986188522    1.34477201635386    0.91364635556470
O           0.63050619660839    0.65254609522299   -0.25367523641510
O          -1.05027370354620   -1.45234854206539    3.28572312378348
H          -0.92548381336198   -1.42957936495355    2.31525884400764
H          -1.97214660224891   -1.67219750330313    3.42975736414324
O          -0.36259808352481   -2.29351280127603   -1.60517310209758
H          -0.50047610239592   -1.96388642456820   -0.69402656068509
H          -1.18637234883973   -2.10123873461942   -2.05792468427786
O           2.07219536701327    0.95664687905371    1.94284576894158
H           1.58927888316615    0.78693648543342    1.10506014403734
H           2.58699533101723    1.75265499890099    1.80158398115091
O           1.73552167274221   -0.75745257208044   -2.20530995741853
H           1.14679973486716   -1.53728559850471   -2.11042370497386
H           0.84997858874241    0.24749717735871   -2.89613812520835
H           1.63725101328206   -0.30182243974205   -1.34435524704365
O          -0.30166638077068    1.11837902878416    3.17797120620915
H           0.64525635936139    1.07074178124242    2.92642026075762
H          -0.97262592227226    1.29266842585836    1.85813894680311
H          -0.54854945667466    0.20241952676273    3.43109547157524
N           0.06168334357803    0.97556657167217   -3.11019123224939
H          -0.32789111680925    0.87251701572187   -4.04118907885250
H           0.41235322780292    1.91643607497780   -2.96410179802713
H          -0.68580820982159    0.74938244811230   -2.33132725136759
