    26
        -50.47031931  Gyration_radius:  2.4928365892 Dipole_moment: 3.316
 S          -0.63879580762595   -1.78377561041176   -0.77637396234215
O          -1.03442175833420   -2.19754058361173    0.56381283582957
O          -1.54733871044981   -0.76958436440610   -1.30410738780690
O           0.75041684085968   -1.40484696626830   -0.86968041443722
O          -0.81709367032143   -3.05497712234269   -1.70403109492317
H          -1.72896645240875   -3.28669516558156   -1.56121300973977
O          -1.57704591723017    1.45790258467918    0.16697396002398
H          -1.72578335826066    0.69896597206642   -0.43416710590535
H          -0.81186594129126    1.92973556315175   -0.21092301856078
O           0.64517349110514    2.34005440574173   -1.15981485267790
H           0.53118208891886    1.65626955279185   -1.87498538030862
H           0.82273294000712    3.17063309070000   -1.60228268847694
O           0.28147295420404    0.35660871338221   -2.85410777337574
H           0.91152422595929   -0.28831821805517   -2.50472177130242
H          -0.56780654880515    0.03243313810267   -2.49904230255051
O           1.58448693106374    0.23277263449104    2.83773122172649
H           2.08608434138948   -0.54000723082058    3.10200716759132
H           1.89467115638185    0.44865639507100    1.91471526673628
O           2.17386828477377    0.55921786046801    0.32035961204771
H           1.75351308342928    1.32084610663714   -0.11021386435825
H           1.77074426296103   -0.22403753030634   -0.09728765790709
N          -0.95692913113413   -0.12887340743981    2.15780598207596
H           0.02606686357709    0.01961641179473    2.51706321863744
H          -0.99195467959962   -1.02897540653163    1.59769037560913
H          -1.62328690907028   -0.15696481107358    2.92176145002530
H          -1.21064857004261    0.64088402776063    1.46303118434703
