    26
        -50.46438400  Gyration_radius:  2.48351149115 Dipole_moment: 1.609
 S           0.64059673281188   -0.72384021356741   -1.14115510312627
O           1.11984922684243   -0.34803530474086    0.20820232100222
O          -0.35152238148128   -1.76789416703335   -1.04693384997280
O           0.16239581850773    0.44894461357334   -1.84969323524814
O           1.88156988642115   -1.24631389598747   -1.92890621189265
H           2.24719394487829   -1.93235602867455   -1.33809178539379
O           0.68701211497923    2.02144079800251    1.78974840842336
H           0.52167982358227    2.56220899687907    1.00214348935992
H           1.21803994430557    1.28647174874784    1.46410474955444
O           2.60150671647721   -2.52814582969991    0.27158222838272
H           2.04586847253065   -1.76706764488922    0.52771279282110
H           3.47234022009245   -2.37535825608627    0.64531395422690
O           0.31409711233426    2.90764303686206   -0.83339366903963
H           0.37030561032760    2.01159356833412   -1.23093357202894
H           0.92425842896304    3.45691661273758   -1.32694386247886
O          -2.02353448780145   -2.37903382817700    0.90288112858354
H          -2.83272184305742   -2.67440885158695    0.48219894196933
H          -1.36112117170344   -2.30596159903595    0.17791877761786
O          -2.13331748275093    1.43065536986248   -0.85589842903165
H          -1.78088116788376    2.32785644557783   -0.80232670843805
H          -1.49346796579402    0.95694808408289   -1.42311040923096
N          -1.26729925760180    0.13093232675047    1.29117756226583
H          -1.74727974350868    0.69188317668751    0.53137689458354
H          -1.73602885611944   -0.79843324629068    1.39680272306771
H          -0.29445167927543   -0.06238847851350    0.93787689372861
H          -1.18508801603662    0.67574253616345    2.14834594031749
