    26
        -50.46830071  Gyration_radius:  2.47348749286 Dipole_moment: 1.553
 S          -0.49010465018048   -0.78599941858205   -1.89346122768013
O          -1.67345895529820   -1.55453196627030   -1.57511871073221
O          -0.58782151747780    0.59364180473391   -1.43231842308032
O           0.75256751563210   -1.39670477501658   -1.44977092959295
O          -0.43402863622999   -0.73480874587431   -3.47865815009056
H          -1.29044680334699   -1.09202264958706   -3.68735020691619
O           2.71452855391548   -0.04797269695926   -0.33104142177236
H           1.97145954908862   -0.48247619455006   -0.80625648166445
H           3.45598298250702   -0.65081633691925   -0.39955575624242
O           1.50625474710701    1.00708749415934    1.81503147757982
H           1.12754604989040    1.75465072658949    1.30714517807533
H           2.07077807430705    0.55711446095636    1.15271210187715
O           0.41915876725402    2.64209002606706   -0.03424414042534
H           0.11099486293414    1.90727379947666   -0.60360069539577
H           1.12284599187636    3.06902060284819   -0.52537882114531
O          -0.53388434509944   -2.51908806118502    0.57530067810780
H          -1.24715432102543   -2.36692753081739   -0.07559221638364
H           0.25201294015226   -2.36233598148973    0.02542704930118
O          -2.17505512795394    1.22793851616136    0.57415582052801
H          -1.84308751871657    2.12665320611081    0.66695544051910
H          -1.77295358282961    0.90471815065993   -0.26251430115404
N          -0.69815610010018   -0.36760609498837    2.11231225701969
H          -0.98681051650732   -0.53289378319051    3.06990404474409
H          -1.39217922301865    0.24566863651362    1.60467287956202
H           0.24800384636730    0.14016845689479    2.07364545746986
H          -0.62699260323875   -1.28184163575402    1.57759910747993
