    26
        -50.47002392  Gyration_radius:  2.50266311177 Dipole_moment: 4.954
 S           1.60493002063808   -0.29883038650737    0.31390595520787
O           0.91438013503481    1.01280165483487    0.39069195064399
O           0.60261552571816   -1.35988335904016    0.25772331910343
O           2.52920147381564   -0.32355057686033   -0.78846015191168
O           2.40434811380608   -0.45655713777795    1.63513994701321
H           1.74399403006366   -0.80054234343251    2.28854443185375
O          -2.95526733014676   -0.03372048734160    0.79320736732609
H          -3.34555126498313   -0.70537660675262    1.35482597420135
H          -2.25834674918822    0.39774052407770    1.32477750311661
O           0.29718268582148   -1.35155206169894    2.88066933935363
H           0.17469597476658   -1.67340418380540    1.96925748384361
H          -0.24639841734085   -0.55008816751334    2.94307260371539
O          -0.89705076323203    1.04360547720709    2.22252472169983
H          -0.19034596652626    1.05798560517770    1.51983145298067
H          -0.88906240012457    1.91238649623137    2.62704638096435
O          -1.52862457366803   -1.01247084541474   -1.28635899150216
H          -0.75705413596011   -1.32335997616320   -0.76445150864301
H          -2.17744941114637   -0.71187153290323   -0.61606787278884
O           1.90227045844559    0.24132091308180   -3.26587509503797
H           1.88221055557375   -0.60790731301633   -3.71121783777908
H           2.29029610427972    0.06253692193877   -2.37555396252500
N          -0.23632568495295    1.12641782861398   -1.96420962102437
H           0.52278214458451    0.86507884230078   -2.64468564417680
H          -0.73578827028436    1.96019924840212   -2.25274370230760
H          -0.88802854067616    0.27613506387965   -1.82357605055702
H           0.23638627565991    1.25290642249920   -1.02801801276435
