    26
        -50.46820983  Gyration_radius:  2.43457629863 Dipole_moment: 2.321
 S           1.78511817611845    0.41221836083649   -0.08196224375734
O           1.95384218901624   -0.49166511551323    1.03656413102203
O           1.34266124687969   -0.26401030321293   -1.29237453427652
O           0.92852924259102    1.54085601256222    0.24042085161168
O           3.21818684832281    0.98785974442003   -0.41541115834616
H           3.10384044349127    1.32867162174502   -1.29703531033174
O           1.22206751865780   -2.88386180236679   -0.05341568104112
H           1.63329637170966   -2.95163188924108   -0.91630270599548
H           1.62465704671019   -2.10102040295358    0.35791989955783
O          -0.34371768659528   -1.34738750300618    2.01194477793245
H           0.53665216997093   -0.96152360650478    1.80320875205985
H          -0.16400220820539   -2.24885199603376    2.29017088924174
O          -2.59496194157086    0.89042189450441   -0.67718441581846
H          -2.39499746988428    1.13696490305839    0.25352518654990
H          -2.04958567060685    1.50706750361608   -1.21002040814271
O          -0.66651128434820    2.49803413157104   -1.65277309569054
H          -0.02507708825424    2.13671929498494   -1.00467665508534
H          -0.79759805788005    3.41611010726459   -1.40800337042589
O          -1.38077825065056    1.29718851735855    1.67343695162341
H          -1.24962758684621    0.46311445227135    2.13668177799336
H          -0.51941598532637    1.50782691010118    1.27124456390913
N          -1.04539372699143   -1.19197307059185   -0.62457067124056
H          -1.77106284400927   -0.39426773150601   -0.72910761745523
H          -0.12246008694745   -0.86310861730987   -1.00876741622576
H          -0.89261774394518   -1.37954767169418    0.39186932201573
H          -1.33104362140435   -2.04420375439527   -1.09538181971988
