    26
        -50.46623995  Gyration_radius:  2.66542887513 Dipole_moment: 1.852
 S          -1.99421288548058    0.51878811035979    0.67488111770775
O          -1.20082430793162    1.32604959506631    1.58738267875890
O          -1.43661031685636    0.54800900274827   -0.68155977103165
O          -2.22881096050852   -0.82646773975530    1.13428725664515
O          -3.41249029037055    1.22148201230055    0.58303520689702
H          -3.21839291239255    2.15241788624469    0.51604524802867
O          -1.46456545705693   -3.07924858720516   -0.08317694949819
H          -1.83244632954106   -2.32452953814040    0.42383953005799
H          -2.17323574380551   -3.38586598058188   -0.65013593677832
O           0.40140624900735   -0.66160956613879    2.25627517156636
H          -0.22942921106152   -1.29499548372810    2.60924582853509
H          -0.11424738199912    0.16534187527777    2.14536358704404
O           2.82815463659307   -0.76059170163844   -1.59004476549966
H           3.62391315479899   -1.03188546529176   -1.12960818239187
H           2.79546814709813    0.22415966256158   -1.51346730396107
O           0.25218028183365    2.56668502083641   -0.36696282877323
H           0.10470265477653    2.52177356157872    0.58600417755818
H          -0.36473035811064    1.89525631401664   -0.71530616700609
O           2.67805049419407    1.86254910645267   -1.23080912565404
H           1.80640411733184    2.13257792565609   -0.85611294734468
H           2.82190063090112    2.43398646517071   -1.98643902767949
N           0.49408739247943   -1.25246004269634   -0.35878251172233
H           1.39125070317033   -1.17434628937541   -0.89513295692327
H          -0.19557784164322   -0.52931994542727   -0.66692404284150
H           0.02055482203792   -2.16653036125011   -0.45827165100214
H           0.64750072233969   -1.08122584705214    0.66637436510996
