    26
        -50.47289138  Gyration_radius:  2.42612545028 Dipole_moment: 2.394
 S          -0.05235017203999   -0.76451236903834   -1.56372761445723
O           0.85074100900209   -1.41879353790888   -0.62363126856459
O          -1.31074125254280   -1.45319135111844   -1.71318326006251
O          -0.20778064386689    0.64738230876976   -1.25862856350998
O           0.66000421263204   -0.84414093485390   -2.98257773607564
H           0.04924026419501   -1.39068324494158   -3.46493111782472
O           1.68835191507125    1.89634312330245    0.21610768386479
H           0.99703608737783    1.59924559787849   -0.40087684394581
H           2.46885197810535    1.39114239190648   -0.05943436307348
O           0.13538282511488    1.33788654517336    2.29004648082930
H          -0.69774622177295    1.60995513186756    1.87160544826793
H           0.83586184354632    1.62230135288739    1.65363205565944
O           3.04021794230800   -0.00695318619761   -1.25708310351525
H           2.32844687372402   -0.61901796201166   -1.00255127100070
H           2.93767021713797    0.12980087856297   -2.20058681260119
O          -2.49459365644194   -1.19384779896643    0.67808428101562
H          -2.64208590995605   -0.23445066599915    0.68494411123661
H          -2.19873670220493   -1.40295554390456   -0.23143366633867
O          -1.98106884514194    1.51669071130505    0.48245289964521
H          -1.34038567802114    1.22535344182957   -0.20655527083511
H          -2.40482895184007    2.30374618994746    0.13705346979902
N          -0.12128934903892   -1.21031242756265    1.81849408174425
H          -1.14102145690519   -1.31006385177524    1.53884540616080
H           0.14683593792903   -1.87229426068197    2.53771238648360
H           0.41158047846290   -1.37015973664990    0.93084997526192
H           0.04240726515488   -0.18847082182008    2.12537258184838
