    26
        -50.46904307  Gyration_radius:  2.57379516876 Dipole_moment: 1.987
 S           1.67152126080597    0.33017098403465   -0.84355151833849
O           2.22103566322727   -0.08320793203149    0.43445299191495
O           1.32495025801794   -0.81546987937775   -1.67781887169167
O           0.58195616796881    1.27462033361097   -0.70843272846186
O           2.81761360435808    1.10491656520713   -1.61841068262928
H           3.48500888920218    0.44685646268685   -1.79104973751780
O           1.25715828806057    1.05111352785516    2.62667673536806
H           1.90599290048219    0.79959706995600    3.28590674748460
H           1.59583642814255    0.70520029678977    1.77238025726753
O           0.50708932708868   -2.24724804575462    0.39416716998022
H           1.22448302451244   -1.94763022496530    0.96294256561401
H           0.78984848897174   -1.96032867566252   -0.49649976242332
O          -0.76988154419208    0.30939573425752   -2.90091587615495
H          -0.57418417944679    1.15075682980627   -2.47305592474325
H          -0.02541863138463   -0.25932052161288   -2.62818945931461
O          -1.39921787210707    0.86863020226833    2.95330604155438
H          -1.71678323943329    1.76953564533595    3.03251515579480
H          -0.41883246991585    0.93015756859806    2.93441370331915
O          -2.91228905692753   -0.59032465214636   -1.59441216500060
H          -2.20878078000703   -0.23235434304644   -2.18963771724225
H          -3.12005423700330   -1.46520473277358   -1.92535562448101
N          -1.27026883513081   -0.23019544222919    0.50117433532805
H          -0.72472608911295   -1.12027444695575    0.58724258586130
H          -2.07481570095453   -0.37717291038529   -0.14839720365352
H          -1.54323744305879    0.12059502326294    1.44482992477099
H          -0.62400420224069    0.46718555326806    0.06571906740526
