    26
        -50.46929796  Gyration_radius:  2.42413471663 Dipole_moment: 3.368
 S          -0.02743096421052   -1.36895414794498   -0.23170791156984
O           0.92478776103179   -0.37572194638035   -0.72649706430498
O          -0.55562595249330   -0.95831960029561    1.07908200971501
O          -1.11218297208710   -1.58267781974420   -1.17526640175259
O           0.72592340000331   -2.70147392202924   -0.04565706550957
H           1.54218613631721   -2.47122481012294    0.48707452610278
O           0.99510287578453    2.02308440111625    0.28492411816573
H           1.71242417057687    2.48260175147296   -0.15577817496283
H           1.00822207640557    1.10120449300991   -0.07522166263967
O           2.69732956383362   -1.96627712434841    1.46387897434907
H           2.36195653713034   -1.10907114495374    1.83184645484748
H           2.78287395751220   -2.56018069121246    2.21309222497012
O          -1.39290481208809    2.33311455748986   -0.98975737779400
H          -1.06934941149640    1.89913345357471   -1.81228863131840
H          -0.59320120309234    2.41835502995056   -0.43081283910097
O           1.43902651425112    0.15468654844013    2.41966001149902
H           0.62001465658006   -0.25396415746958    2.07248960613049
H           1.50034925024731    0.99803954613974    1.95299934257108
O          -0.37473831635277    0.65789091108676   -2.80487532451702
H          -0.91823882798297   -0.08558197557657   -3.07662903948395
H           0.23806049903945    0.27527628107147   -2.14432644274576
N          -2.55338877539958    0.23487669679810   -0.01845396735149
H          -3.53734647831980    0.24439623425495    0.22640146120087
H          -1.92804475311572   -0.07520390244634    0.76533062996941
H          -2.30063633141162   -0.50450480602979   -0.72098724250251
H          -2.18516860066326    1.19049616415426   -0.38852023397667
