    26
        -50.46581756  Gyration_radius:  2.48685675653 Dipole_moment: 3.933
 S          -1.35117829822095   -0.07159589688802   -1.45079056671791
O          -1.29981928414000   -1.35259412063231   -0.75905162214759
O          -1.80825002514518    0.97987834479527   -0.54278184573605
O          -0.12867956141077    0.26353226595279   -2.13349355345433
O          -2.46981610373522   -0.22077095575200   -2.56278641246768
H          -3.18499706548822   -0.64253138633746   -2.09668355295380
O           1.67498445251010    1.36194805501121    0.77957533002953
H           1.14420684307295    1.91172191638002    0.13605775714138
H           1.94556781618475    1.95856628241401    1.47878091232370
O           1.89728894852598   -2.75949697895782    0.80505127650521
H           2.11782596520756   -2.13693254900574    0.07399961758279
H           1.49989209559811   -3.52244679754261    0.38207914299566
O           0.18762388254710    2.66315140244680   -0.92919931410266
H           0.44201056241279    2.23995919865134   -1.75834616520245
H          -0.66402878814836    2.22951724129904   -0.71809324729117
O          -1.94631942108064    0.64655197819999    2.12502253909429
H          -1.94215452033083    0.78869157064001    1.15638824378522
H          -2.65250883545355    1.19482464474521    2.46790458786472
O           2.10647114927192   -0.81219439071845   -1.03186565787042
H           1.31982025922102   -0.55149381678749   -1.54570733711207
H           2.34481404318109   -0.02795191121177   -0.52377327462963
N           0.15646442593123   -0.83113538850714    1.35799654240146
H          -0.44039647644370   -1.04998019193672    0.51004058993704
H           0.72752965669720    0.02152437525909    1.16248922728316
H          -0.47560087256218   -0.63500544405423    2.13692636083876
H           0.79924918179886   -1.64573745745590    1.48026042191406
