    26
        -50.46886253  Gyration_radius:  2.508756402 Dipole_moment: 1.115
 S          -0.89291148504786   -1.21216507498120   -1.63272312701504
O           0.53687734010426   -1.24038172849291   -1.93641236010955
O          -1.11244837055613   -1.39377365291519   -0.19575732339614
O          -1.57118505516606   -0.06185781066335   -2.15943931637606
O          -1.51220128973055   -2.48773146873485   -2.33300940491073
H          -0.96963103528376   -3.20222093703101   -2.01373493945844
O          -1.00545681169759    2.15421179966422   -0.82047281183805
H          -1.40601357328027    1.87407967385134    0.01880919130723
H          -1.34408206521949    1.50164018555171   -1.46766427739583
O          -1.93537521178014    0.60941183757217    1.24765865819305
H          -1.63828329632502   -0.16770169385303    0.70973633022803
H          -2.82018226457636    0.39647436346975    1.54814421464957
O           2.20755338635392    0.24069884644095    1.39310326344421
H           1.55824235136550    0.55032068718602    2.05648617864935
H           2.01357982950371   -0.71383677083149    1.26238880283783
O           1.33509441727050   -2.15434330452911    0.54193092177880
H           1.62619664394138   -2.13225531491842   -0.37647189668209
H           0.38297345322155   -1.94850073099217    0.48439437634307
O           0.16084023765411    1.16405877192563    2.89913500769264
H          -0.62005999850644    0.91731594654239    2.36767482955983
H           0.08994197364612    2.10379426124653    3.07176674172142
N           1.39800036052628    1.05681568724159   -0.94148586043540
H           1.13323262691162    0.16107884133393   -1.42554201410498
H           2.09320214974173    1.55867063529873   -1.48341390017002
H           0.50815394581889    1.62848434705171   -0.85155020743593
H           1.78394173108133    0.79771258356569    0.03644894293857
