    26
        -50.47508728  Gyration_radius:  2.41603492259 Dipole_moment: 4.304
 S           0.27325299016556   -0.47428074794157   -1.67630459892266
O          -0.48516340063765    0.65879581699529   -1.14460037394130
O           1.40950709543451   -0.76936748801359   -0.78611538739371
O          -0.56649693206094   -1.63086918872856   -1.87071060287892
O           0.85898102266766   -0.04220967959611   -3.04652815111702
H           1.50292630362328    0.65299617748342   -2.78803359416481
O          -2.37929812333338    0.36725555789122    0.73673393631361
H          -2.50574121666333   -0.58924426685562    0.73399355937385
H          -1.83367228462207    0.54534028382272   -0.05282972785883
O          -0.35866195272797    1.02195890351261    2.33582908556744
H          -1.24160014859315    0.91420238676755    1.90804433713815
H           0.12270181957638    1.64830560823850    1.76156444285905
O           2.49929571937067    1.49461491212280   -1.65905599941334
H           2.48965532130694    0.64983465397503   -1.18133256736221
H           2.07870516771381    2.12300516655906   -1.05300505727260
O          -1.71850881005946   -2.37342555444756    0.33510345165288
H          -2.12608089222948   -3.22865687494513    0.18839222182129
H          -1.33418873164218   -2.10514796049667   -0.54173026188884
O           0.66593517140396    2.50354805343913    0.25594373139026
H           0.16978627008845    3.31314646239880    0.12128085124272
H           0.21584636286828    1.81437063247376   -0.29781331372899
N           0.46357911448184   -1.31859851866255    1.56866558660579
H          -0.39369477162946   -1.85127385172725    1.32834971919130
H           0.94840169792547   -1.12036764514329    0.64043189151653
H           0.17842182225545   -0.36049624951103    1.99094647536881
H           1.06611137530928   -1.84343663972104    2.19278038592706
