    26
        -50.47201779  Gyration_radius:  2.51738449362 Dipole_moment: 1.435
 S          -0.60258053772531   -1.65935918988616    0.93860471487730
O           0.08688539473442   -0.45770524412676    1.40921375967935
O          -2.03874667888644   -1.48273115628231    0.93703330895721
O          -0.05667033783842   -2.12890680358059   -0.31720695253810
O          -0.29323679663266   -2.79125272416335    2.00006001118551
H          -0.85098903317865   -2.53680611357771    2.72729545228100
O          -0.53322561002500   -0.21098845919202   -2.16436340387620
H          -1.32519112158230    0.20421632647513   -1.78020278002814
H          -0.45364884401686   -1.07050981634278   -1.71378227602666
O          -2.57722608408718    0.59874423911151   -0.53327871585238
H          -2.42813355649215   -0.18996431855266    0.04572880087286
H          -3.51632957380964    0.61435670038182   -0.72548648386367
O           2.59356741722812   -1.85341441842286   -0.69991573718304
H           2.95618526895584   -2.64452150913106   -1.09974456049452
H           1.65009321562643   -2.04601796379307   -0.52690684820935
O           1.25032446922761    3.16650577407925    0.09673865273334
H           0.38040298656742    2.89356637591110    0.48033950472591
H           1.70825705377607    3.64118071232483    0.79116533733281
O          -0.92641716416561    2.06476343036173    1.16187101907275
H          -0.57789671428624    1.20703621855992    1.45986071516568
H          -1.60836468996706    1.83122436840814    0.51432923064809
N           1.46158672868013    0.59036848957691   -0.61037790577615
H           0.75891988700263    0.42872510646677   -1.38237076418793
H           1.62765636485650    1.60783602971647   -0.46337564796781
H           1.01608414707215    0.19278163667151    0.25325989349847
H           2.29869383897079    0.03087232901553   -0.79848832502448
