    26
        -50.46736509  Gyration_radius:  2.48741174609 Dipole_moment: 3.691
 S           0.38339594903321    1.26747096010744    0.37891557158429
O           0.13455218868199    1.19972394623802   -1.05571266821938
O          -0.86647683161865    1.19720944520824    1.13284855833667
O           1.31437352874602    0.22877923682053    0.79658916825821
O           1.06435441883523    2.62928836324401    0.69631763075200
H           0.33607042896123    3.27010146006912    0.56713776005672
O           1.33880397358783   -0.34224861061382   -3.09636012351301
H           1.95328750265379   -0.85732438672406   -2.56736171237134
H           1.08898811115369    0.41869679130422   -2.55596707111886
O          -1.32848825301955    3.72405143597589    0.61928932839949
H          -1.64667487217943    4.20193306657932    1.38866820477954
H          -1.44968766906346    2.77193303811582    0.80902066285907
O           0.40836233492452   -1.87035929429253    2.15911223871654
H           0.76956081038661   -1.05532825806257    1.74741260158500
H           0.48928470941811   -1.74718679263480    3.10575877862881
O          -1.94009843403420   -1.24358113270379    0.94770764917146
H          -1.74052783640413   -0.29526984043153    1.08897141553201
H          -1.25572211493899   -1.70237246425532    1.47173759127925
O           1.62752128370964   -2.00578538210079   -0.61587111886184
H           1.59234518303512   -2.65006691838434    0.09676828866118
H           1.68752498630070   -1.13677295214708   -0.16442419798459
N          -0.81712070077908   -1.22339690588103   -1.41236397383695
H          -1.26245139120303   -1.48101225145271   -2.28686248319557
H           0.09314089129878   -1.72900126032902   -1.28555957618688
H          -0.54940784490959   -0.20088614806087   -1.41820401302762
H          -1.42491037257463   -1.36859514558888   -0.54756851028492
