    26
        -50.46276866  Gyration_radius:  2.52147559767 Dipole_moment: 7.620
 S           0.54878844196409    0.17588553420914    0.56972863720910
O           0.59721414479745   -1.27444638214668    0.48376844691712
O           1.82179335981670    0.79013185480488    0.17203252605598
O          -0.53769044270473    0.73519637058688   -0.24101610505827
O           0.32379339824546    0.58958211317035    2.02990530548169
O          -0.52614192939772   -2.99074760577272    2.18800312100132
H           0.20193110210404   -3.32049896134582    2.71728761976355
H          -0.12146307151337   -2.46973231050233    1.46502273345300
O           1.69646297297027   -1.18162905060731   -1.92155997807475
H           2.55998779159554   -0.84803551024896   -1.66942546564971
H           1.24867213598729   -1.37073837292869   -1.07210232756106
O          -2.94381086817721   -0.01262709369686    0.56348373077962
H          -2.06766583202380    0.23143701114250    0.19376254696666
H          -3.48144383308526    0.78010766364071    0.53031725449626
O          -0.06721848790201    0.59595437245465   -2.84432215471201
H           0.77559751187491    1.74407681984068   -2.35142680790989
H           0.55072048248611   -0.16513169817154   -2.79322056199211
H          -0.55143770185874    0.54330220585837   -1.99504906678631
O          -1.70114281139010   -0.67372540425678    2.84507417919614
H          -0.50084466419515    0.09625862261358    2.41042545369543
H          -2.32810345668003   -0.51780500700876    2.10694486729129
H          -1.41183537745827   -1.60671785795680    2.74605687193363
N           1.35449679409607    2.41987262191947   -1.71465651563610
H           1.60696438842687    1.77570589139245   -0.85561133472856
H           0.76445788738996    3.17965015814949   -1.39193846939019
H           2.18791808463560    2.77467398485402   -2.17148450674011
