    26
        -50.46886975  Gyration_radius:  2.42988190597 Dipole_moment: 2.150
 S           0.57752461336932   -1.31093824612236   -1.20990604666595
O           0.49912317726722   -0.18343856604734   -2.12039129802138
O           1.70762812812619   -1.18521992879847   -0.29408635886611
O          -0.66316845724527   -1.57096507689154   -0.51330793687670
O           0.86166362263750   -2.58954415420876   -2.09464982522951
H           1.65885005647718   -2.35183176838700   -2.55640272123297
O           2.00455650649863    1.44811862861952   -0.38547039627190
H           1.99950491524320    0.47379996022751   -0.30324574771829
H           1.79767093315554    1.60444466185879   -1.31087913894320
O           1.77291865861430   -1.05209439920713    2.37806626096119
H           2.45570750936872   -0.39947781095306    2.54673049785577
H           1.82959837717889   -1.25230174880330    1.42083160436875
O          -1.50886003578682    1.39632121892625   -1.48075469221888
H          -1.85222418241246    1.75830937443568   -2.29887933593766
H          -0.78880319722021    0.77326334903737   -1.73564814815367
O          -3.05803996484227   -0.26387629265133    0.24289272466078
H          -2.62736225658517   -1.04653739760487   -0.11598732218289
H          -2.73472417203858    0.46002592966313   -0.31052943485799
O          -0.26973283492924    2.17917697133107    0.82809475692975
H           0.64368680697037    2.05945017780584    0.48425049079034
H          -0.83879152869576    2.14195263767861    0.04076937703211
N          -0.70251646371578   -0.22165206291567    1.78698678115624
H          -1.57178830059229   -0.34181749751622    2.29957690948894
H          -0.75486413964062   -0.78873370813699    0.90414924666255
H          -0.58238790969998    0.80340038933503    1.49399079600404
H           0.14483012852602   -0.53983462067882    2.30379899727320
