    26
        -50.46959553  Gyration_radius:  2.46649476854 Dipole_moment: 1.558
 S           0.91517487841006   -1.37473119862478   -1.38719273001722
O           1.08250558847647   -1.95017368999722   -0.06470066010640
O          -0.46916090341303   -1.18126079035517   -1.76001251594278
O           1.70097014311726   -0.15759493975207   -1.55771670837250
O           1.50753912061900   -2.43695809565909   -2.40325337459053
H           1.17429226639434   -2.10819922485107   -3.23127044165340
O          -0.05856035147086    0.95301908923613    2.28950960816059
H           0.83018392421791    0.90764459581775    1.87327003920922
H          -0.60788309648585    1.47499996613782    1.67982954609457
O           2.23828297990101    0.49139023171072    0.95893959878779
H           2.08954181019333    0.27947520321898    0.01373016117561
H           2.58033885204151   -0.32263171446045    1.33415898915932
O           0.57527475145262    2.21633931195719   -1.35755702602454
H           0.90812954484757    1.31750404360358   -1.57154545203856
H           1.29619337637884    2.63757380159992   -0.88270908417757
O          -2.55639311090348   -0.48243984216574   -0.27826684530822
H          -2.36397348572008    0.46340081161557   -0.14545154009478
H          -1.93761749596324   -0.76358787302419   -0.98316428948696
O          -1.52644152686096    2.02980908029896    0.21394261184878
H          -0.77123077174387    2.08353106763094   -0.42832082615137
H          -2.03522595095408    2.83312418865054    0.09754373962851
N          -0.92435713805081   -1.40819379767808    1.54366310299260
H          -0.59755681346554   -0.50721587585425    2.01328454421881
H          -1.19600429672369   -2.11726905053063    2.21423336725359
H          -1.72359368085050   -1.13863095575153    0.88654697542685
H          -0.13042861467916   -1.73892432281620    0.93250920000152
