    26
        -50.46539537  Gyration_radius:  2.50804135972 Dipole_moment: 4.026
 S          -1.33314584781856   -1.15096982374930    1.08446913783223
O          -1.87522956654501   -1.35445372519769   -0.24428343078037
O          -0.13005923135506   -1.90112467340929    1.36113119763506
O          -1.13151334790483    0.27173864242473    1.37836470156503
O          -2.44072044697017   -1.66252527410389    2.09614800353223
H          -3.25553005632540   -1.32369138276518    1.73640616038207
O          -0.87230177918341    0.53788268158616   -1.91873766303438
H           0.02329203785431    0.19309758249794   -2.02352348789380
H          -1.35046304721905   -0.12240591545825   -1.38548444920907
O           1.52519033302482    3.04189379027990    0.46256013551937
H           1.51731033149853    3.69066167693374    1.16746168675517
H           0.57953715222980    2.98181463213200    0.13639463489009
O           0.20220123977986   -2.92671824421897   -1.02832068401312
H           0.20423294664673   -2.78001425622659   -0.05966431920894
H          -0.69607476124442   -2.67078919482733   -1.27606294050394
O          -0.96000596334614    2.55963972177190   -0.15133882890749
H          -0.97175526684548    2.02075295167238   -0.97006070608620
H          -1.20560653892964    1.92094638171140    0.53584766201013
O           1.61102634740206   -0.81113039907817   -1.56668043535632
H           1.11019190678964   -1.66848121627652   -1.42587033780781
H           2.39288017709756   -1.03073864084777   -2.07484910951886
N           1.43409022779722    0.43418068485828    0.84181365502079
H           1.57028561449730   -0.03427991109093   -0.08271635536226
H           0.41053175328336    0.34491518151635    1.10805213673380
H           1.99543141974002   -0.02953688172404    1.54885218126178
H           1.64620436604452    1.46933560159035    0.75009146454702
