    26
        -50.47229326  Gyration_radius:  2.41207663258 Dipole_moment: 3.390
 S          -0.23305796183892    1.67828884295734    0.40996934808408
O           0.52879304764891    1.25424754502781   -0.74495858119922
O          -1.58477877954778    2.09389689792004    0.07772420600345
O          -0.21859505327893    0.70238108439272    1.48758183944932
O           0.51217064513034    2.96984818935054    0.96344196757055
H          -0.14767853406847    3.36423566492475    1.52429576481091
O           1.92791507738064   -0.89066713917012    1.26192848063677
H           2.56818430452896   -0.28406196187014    0.84930906756952
H           1.17432673065666   -0.31817518530841    1.49972711834925
O           0.57549363061965   -2.49007429565612   -0.28874050990740
H           1.16193126699949   -1.89902179919097    0.26688734932566
H           1.00914857487266   -3.34370230049546   -0.31382864672807
O          -0.24661851048016   -0.80188195202904   -2.27924850139785
H           0.09125511079371   -1.52564846719996   -1.71798888675658
H           0.20344544210602   -0.00559014971176   -1.94194718010520
O          -1.61954764824493   -1.56759515839691    1.08997281340887
H          -1.16357939335547   -0.79100207867476    1.46751281024187
H          -0.90826884382460   -2.09208058370988    0.67669558466531
O           3.04539285221357    1.33513840158088    0.12907647097703
H           3.07876095633609    2.12887738175475    0.66574061931973
H           2.18365938519940    1.36272003406380   -0.32747277814706
N          -2.42358740894520   -0.17421637723335   -0.96892653689719
H          -3.35029135051026   -0.23925829679005   -1.37532206398897
H          -2.21630627295925    0.79969523090458   -0.62507342567766
H          -2.29631383492105   -0.82024476843736   -0.12663066276927
H          -1.65185346297417   -0.44610876875625   -1.65972566704438
