    26
        -50.46849340  Gyration_radius:  2.56091953471 Dipole_moment: 3.302
 S           0.06655035274481   -1.28644528197706   -1.65239191401751
O          -1.32815300451332   -1.50968079152970   -1.33091781079151
O           0.26593556328526   -0.03205751535511   -2.36344325411368
O           0.93180902547932   -1.43312149377708   -0.49126337582142
O           0.51444293750742   -2.43186968683386   -2.65340117367981
H           0.07863015723885   -2.21665611121977   -3.47300312209739
O           1.07195102274122    2.57381581217601    0.64127322362278
H           1.68346911654446    2.01069410904898    0.11830791577746
H           0.23514200099498    2.55078741043399    0.16515203736054
O           0.92222741351423    1.35463438061976    2.97873178955283
H           1.81950299217267    1.14618664294707    3.24257549773284
H           1.00178314988723    1.96130634958537    2.19885254511788
O           2.40701692369420    0.78643643655458   -0.88134939573782
H           2.13536186998544   -0.09783142242739   -0.58587354153093
H           1.93891600312441    0.88692054389486   -1.71965498679214
O          -2.49109099479707   -1.98310753123282    1.02331756702017
H          -2.61596321901691   -2.92688697811779    1.12851400692880
H          -2.16952327306009   -1.85153623616957    0.10566613455809
O          -1.20016428336872    1.38610040196306   -0.72499241284389
H          -2.10749379261392    1.22557078184742   -0.99240820967121
H          -0.64520844912572    0.93024562566143   -1.40141129594509
N          -0.50481159587650   -0.21120419229454    1.36635173061873
H          -0.87302435758470    0.50975115958407    0.70775916411364
H          -1.28600395228367   -0.82987080373719    1.64026849250695
H           0.16126793665415   -0.77904523744625    0.79296537983035
H          -0.01256958331719    0.26686361781269    2.16037498829620
