    26
        -50.47080931  Gyration_radius:  2.56248251652 Dipole_moment: 3.296
 S          -0.52349306715134    0.56146728553251   -1.24223236912052
O           0.33104476393483    1.51277607201897   -1.92867193574759
O           0.14455658806295   -0.73740328440302   -1.09642693517259
O          -1.00077141823796    1.04626984614212    0.04114665898198
O          -1.79743423696406    0.32505939561901   -2.11883607605527
H          -1.41744746788730   -0.00407131961491   -2.95603052586046
O          -2.58362958158211   -0.55354624813965    1.41646266624134
H          -3.07967514849335    0.05189675477728    1.97041453850566
H          -2.03023541111033    0.01300845729095    0.83387734627966
O           0.09454873252155   -0.43584735232194   -3.80262121490291
H           0.46457262868463    0.43471490853641   -3.60089747337929
H           0.36037090107255   -0.98878266313739   -3.05538632688133
O           0.96886597214910    1.46163391932791    1.82258211548184
H           0.12869862765734    1.51095772594301    1.32940046937284
H           1.63598065216939    1.77800171229355    1.17818981614913
O           2.40800748554602    2.01625403433543   -0.37128268791343
H           2.70956488350568    2.89713139705557   -0.60111849408317
H           1.66962353606513    1.81923537691058   -0.98999891410107
O          -0.96926133564448   -2.37757530477072    2.45027794941481
H          -1.24316565405510   -3.19961647111116    2.03992371264686
H          -1.62627050840149   -1.70155444139593    2.15175332333262
N           1.09315055699792   -1.10600293639035    1.31882484886880
H           0.75406627968628   -1.02504964339079    0.31685767539663
H           1.11966532642687   -0.10045002755207    1.68541884647351
H           0.37808372528668   -1.66272447974259    1.85213350996471
H           2.01058317975326   -1.53578271378479    1.35623945613407
