    26
        -50.46796938  Gyration_radius:  2.53175095032 Dipole_moment: 3.383
 S           0.18416930174771   -0.79051539789056   -1.36452107568964
O           1.13188736597803   -0.57102842595905   -0.25808876612064
O          -0.95819992402843   -1.55512049317232   -0.90814925125113
O          -0.19940747576940    0.47036935503723   -1.97268508750600
O           0.94110773558111   -1.61457112100410   -2.45562000485858
H           1.32942052106041   -2.36330864465424   -1.96254674948334
O           0.59201847757796    2.95617484419213    1.78706329916826
H           0.60377601413300    2.99562537179528    0.80385000241593
H           1.50781152849285    3.01974138132369    2.06190800558115
O           2.05682644420173   -3.01759239405903   -0.48259158344427
H           3.01654458833462   -3.03362701496800   -0.48700224911333
H           1.79514299970178   -2.13508702120024   -0.14915928331679
O          -2.41113415885534    0.80890724768189   -0.53338357304927
H          -1.71485601654798    0.80612144271327   -1.22050145909325
H          -2.77245446612869   -0.08258892510074   -0.56303054988448
O          -1.20551330906588   -2.00726297062101    1.71867475197648
H          -1.16016189468731   -1.91461292476849    0.74356320935682
H          -0.95421027227196   -2.91281722241772    1.90273379639049
O           0.60227506536714    2.78639664038504   -0.89435168467842
H           0.43685085441309    1.90556179093836   -1.28896467440914
H           0.02185620630722    3.38763519118070   -1.36521249130586
N          -0.57359454977515    0.58426271851834    1.41009841835942
H          -1.38188614740675    0.78374364094685    0.76404948893720
H           0.18825488247456    0.17218355294918    0.81197383231883
H          -0.22051722240197    1.47023038662024    1.83277243587536
H          -0.85600652843172   -0.14882099846562    2.06912123282718
