    26
        -50.46832449  Gyration_radius:  2.55927098216 Dipole_moment: 4.107
 S          -0.39608126759630   -0.52609358881801   -0.98112404198785
O          -1.15957470073946   -0.21144418810528    0.23856338065084
O          -0.00094318596694    0.69350792886580   -1.66959844194976
O           0.73518529754792   -1.38569375999986   -0.65965876448941
O          -1.31582394196022   -1.34812718702627   -1.91389929000807
H          -2.03777120934786   -0.73781666903350   -2.22760886614835
O           2.42398709183437    0.65066850006456   -0.52684637688478
H           1.78841799536935    1.10342289629613   -1.10132821399894
H           2.08434940821767   -0.26209494274467   -0.55317646014601
O           1.98572599620620    1.45762590861901    1.93496223721141
H           2.27468357961003    1.17414596481106    1.02560984051415
H           1.65921594784376    2.35371799349027    1.83790784915046
O          -2.09228909844154    2.07763813731241   -0.88452150905430
H          -2.18879620481141    1.48942683509773   -0.12488965741872
H          -1.22164326345602    1.81543569143675   -1.24743064486431
O           1.39071680717529   -2.75458412254769    1.47709080660472
H           1.09635890077835   -2.41667217907754    0.59960757133116
H           2.33625513184271   -2.89543523773495    1.39910272864881
O          -3.05053870197828    0.42063375061166   -2.71451945508258
H          -2.73857445070567    0.75251929547369   -3.55924462876069
H          -2.87367706967112    1.13732621889133   -2.05519197550912
N           0.25747207564142   -0.51634203763536    2.37481148894532
H          -0.39488155879762   -0.40414224010943    1.52775853645330
H           0.94880887023308    0.27901425978406    2.33524297487007
H          -0.26803587427271   -0.51873335367211    3.24191454779801
H           0.75745341544005   -1.42790388425418    2.22646635411764
