    26
        -50.46850995  Gyration_radius:  2.45248206243 Dipole_moment: 4.998
 S          -0.96849237425863   -1.58086537076423   -0.92544061043460
O          -2.03185491431052   -0.96277975725157   -0.14610539342460
O          -0.53973516627592   -0.71250283026791   -2.01483094617868
O           0.13696144888273   -2.06025469519997   -0.12668336238972
O          -1.61096111633683   -2.85779749646461   -1.60432212259815
H          -2.32458582033877   -2.47560329629446   -2.10371256932766
O          -0.88137341732679   -1.55919701158677    2.30689854326800
H          -0.39914665864877   -1.95460544482767    1.56035090180155
H          -1.72939806231615   -1.32083048014910    1.91722390181351
O          -1.52964999438605    1.54388451295754    0.27550905606601
H          -1.71602167053444    0.59779112129175    0.04411875647134
H          -2.37899084483178    1.93325957040306    0.49007956782088
O           0.74255554274233    2.88431714702843   -0.37344593265736
H          -0.16387118597389    2.54396329453739   -0.25679508892676
H           1.13623465589979    2.87042172121530    0.50391939398929
O           0.49186020913004    0.76011317156732    2.05499091595364
H          -0.20278357025871    1.13542926683848    1.49231211407612
H           0.08365463924926   -0.05483976514685    2.41307601793869
O           2.28547599819325   -0.59712475178873    0.59409306967029
H           1.78846464980180   -0.05352628936023    1.24890944523116
H           1.69287874023030   -1.34895626020165    0.41470565886308
N           1.64223577717464    0.66530294401921   -1.57924805225391
H           2.06232396830909    0.15340170611787   -0.72708951073511
H           0.76903992396088    0.12291692437415   -1.83815216668823
H           1.35844031252930    1.62302685319564   -1.26017232953216
H           2.28673891969085    0.70505520574545   -2.36018925781445
