    26
        -50.46896793  Gyration_radius:  2.54025199746 Dipole_moment: 0.649
 S          -1.58725215209003   -1.19194591969728    0.32299220206095
O          -2.47815430983664   -0.05758186306253    0.39004871941413
O          -1.04445625475095   -1.41954990915420   -1.00726950356013
O          -0.52556370413168   -1.11098300863233    1.32382769037802
O          -2.44455296572002   -2.47455304364366    0.66832234725837
H          -2.94629313103803   -2.17860625013983    1.42069327243405
O           1.41986707895623   -0.60620061242991   -1.49175919148418
H           0.55883482193447   -1.05447225377956   -1.33341333381283
H           1.40619558731063   -0.34412977648307   -2.41479525405800
O          -1.29774862185585    0.67049794594282   -2.65647611172835
H          -1.27209728163967   -0.12236029710284   -2.08167461422458
H          -2.09494532295341    0.58840662092695   -3.18185226740338
O           2.21888134415575   -1.41940791500248    1.17930771491200
H           2.29315418592739   -1.38166557613925    0.21894590660844
H           1.26796795076279   -1.50213093828061    1.36122473603214
O           2.77374835709300    1.06178505221846    2.08548072254185
H           2.73112007639289    0.11578798369980    1.81601783653483
H           2.90115155568830    1.06539136774379    3.03432880140379
O          -1.51581928214424    2.30123540977550   -0.48063712580670
H          -1.43141458157543    1.99461210830757   -1.40267446207126
H          -2.06457808500495    1.61050717554745   -0.06213082027986
N           0.63368699611455    1.12451570160464    0.46314820684752
H          -0.10313195379128    1.81824128536606    0.15297734145438
H           1.08711349185712    0.69164007105059   -0.36667214441521
H           1.37184815826044    1.48399992372053    1.09454023960234
H           0.14243804211713    0.33696671765556    0.94749906137355
