    26
        -50.46372121  Gyration_radius:  2.59084523023 Dipole_moment: 2.121
 S           1.63147469019283   -1.18700811276975   -0.82965729217083
O           0.54575979614221   -0.34216915479037   -1.29496523094994
O           2.65916681601415   -0.43702199285104   -0.13656578558462
O           1.15559624890946   -2.32785274083655   -0.05781802281045
O           2.30116960924372   -1.78501755824329   -2.13645036916874
H           2.97564005442458   -2.34969293496671   -1.77319919402191
O           0.93225580864824    2.16437074366050   -0.64678872472943
H           1.82573888202714    2.40001324074238   -0.90220019938106
H           0.80620220105263    1.23153004736732   -0.94447113158194
O           1.33680129689294    0.86142634873756    1.74777334691189
H           0.99566450768386    1.56857781593700    1.17680449416832
H           1.99024009957732    0.39993131942661    1.17777076733487
O          -2.14789670887505    0.05707225889208   -1.14009161048249
H          -1.21906385435126   -0.18413699976887   -1.29658648964491
H          -2.15132705619937    1.03198639225594   -1.07483963030296
O          -2.70779733835153   -1.00716347585367    1.15744308650175
H          -3.18906274182886   -1.80752346199289    0.94267931920067
H          -2.56455442477474   -0.53994737655913    0.28199619771423
O          -1.73018629844598    2.76194481738335   -1.03003836008817
H          -1.78755808612221    3.17252360281503   -1.89431482293998
H          -0.78365820757115    2.68756702941833   -0.82148395671326
N          -0.18687191539532   -1.28139397236117    1.91834087051605
H          -1.21147782859491   -1.16376803884295    1.66962792736059
H           0.30586749891030   -1.80882562205185    1.14022651035673
H           0.30472226749416   -0.34128130594508    1.96721660718982
H          -0.08684530671929   -1.77414088878501    2.79959169329745
