    26
        -50.46990122  Gyration_radius:  2.42746958428 Dipole_moment: 3.169
 S          -0.18923023820895   -0.06995278766131   -1.55378581613684
O           0.88813121843675   -0.93764449207150   -1.06251661438669
O          -1.39187329303523   -0.28755342259834   -0.74572205995260
O           0.19540323075487    1.31388286007926   -1.62815553782926
O          -0.52493551659056   -0.52766843892228   -3.01345499499900
H          -0.81575708995242   -1.44913909359916   -2.92660006036745
O           0.75700219562428    1.80342189769217    2.04828385631438
H           1.49648091385371    1.52644695750720    1.45990009416464
H           0.23246801915693    2.43218602447664    1.51248984827318
O           2.37833236509924    1.02431332402314    0.06208336725339
H           2.16500701790114    1.68497299716640   -0.60407968135954
H           2.00202970168935    0.20362867610267   -0.29873000710962
O           0.58960482892650   -2.35817735820584    1.19520028352646
H           0.85126999015668   -1.85991800125713    0.39314942676833
H           0.23627519986888   -3.19716000066100    0.89130643182098
O          -0.99802809631400   -2.80318258359068   -1.63342346335755
H          -1.49178668974796   -2.11589583050909   -1.16007560029279
H          -0.06796312738370   -2.60054269979105   -1.46717190338260
O          -0.77854222122199    2.98035512318170    0.19203874672713
H          -0.80039097229427    3.84957509824742   -0.21080271421938
H          -0.49841659671543    2.36143619994093   -0.51534204609007
N          -0.86706407603081   -0.19977240420317    1.83714967823045
H          -0.18779339219380    0.63189458872622    2.02391776888466
H          -0.33295158587117   -1.09329635788967    1.87910990568869
H          -1.64697065668828   -0.19169079294495    2.48495874136490
H          -1.20030112907556   -0.12051947315516    0.84027235048452
