    26
        -50.47026220  Gyration_radius:  2.4547943573 Dipole_moment: 3.230
 S           0.47514211178678   -1.66431901270617    0.55029032139782
O           0.04516227483740   -2.05460166556908    1.87103123838140
O          -0.62786356572381   -1.16205757179422   -0.27015990441129
O           1.59983154272976   -0.75028318598013    0.52966179782196
O           0.98365919451447   -2.99487255350488   -0.15465455237257
H           0.54882968965663   -3.69420978069559    0.32288487168998
O          -2.00645311514238    0.75221639637801   -1.81988404762463
H          -2.39837897831256    1.20050542376718   -1.06533434420889
H          -1.64875875307425   -0.07614037622537   -1.47044264186268
O          -0.41561424424686    0.07357827616144    3.38359672729900
H          -0.84970032426989   -0.22642346263078    4.18419741230548
H          -0.16011411542209   -0.73900407788514    2.89556980969159
O           0.44425537330837    1.67145213107037   -2.48154343854082
H          -0.51823259156818    1.48975431055839   -2.47155193618720
H           0.84700592881302    0.79354195195246   -2.64309514673702
O          -1.49766751203933    0.98700365301091    1.11532318911704
H          -1.35696005470894    0.13040787463563    0.66942391077923
H          -1.26078884086863    0.81558887748975    2.04917212648152
O           1.22116017409786   -0.90100653178716   -2.23802785767746
H           2.01138006774480   -1.09734005430387   -1.72917453813439
H           0.48727047217500   -1.10919772727319   -1.63879866822428
N           0.83068639397101    1.74132381943934    0.09160645772732
H          -0.13066324609859    1.67665841049887    0.52402399143397
H           0.72488119418760    1.83158597266471   -0.98149405918114
H           1.37544553622565    2.49692460776909    0.49109512700698
H           1.27648540745493    0.80891431500661    0.28628416405278
