    26
        -50.47097815  Gyration_radius:  2.47006879211 Dipole_moment: 3.293
 S          -0.03452207622810   -0.99359056264444   -1.32237060187719
O           1.04038921127134   -0.77597009375154   -0.33757080641171
O          -1.33491802322463   -0.82810537065740   -0.68608909271360
O           0.12854666496384   -0.16296653460081   -2.48472128788476
O           0.08415313530694   -2.49206995349270   -1.77058259448596
H           0.08706395173956   -2.99385596825820   -0.94057699216305
O          -1.25169106916935   -1.17233136732949    1.96200429571302
H          -1.41401438039237   -1.01940409895084    1.00923871985306
H          -0.70783242127302   -1.96738023788845    1.98865351628013
O           0.63581505408117   -3.03840636864321    0.85787949756420
H           0.92124175529919   -2.14515123766621    0.55816404074838
H           1.43435558693999   -3.52810366775142    1.06399399767326
O           1.58328854863015    2.05130266657540   -1.97691092957757
H           1.10270134642351    1.22850393164212   -2.19201237085775
H           2.16485439891684    2.20826481293566   -2.72177906608193
O          -0.40211539305904    1.14134721607003    2.92771091767774
H          -1.19747720749417    1.56914486187729    3.24916357885101
H          -0.68386165442034    0.23164127750143    2.65391383108038
O          -1.60992838002416    1.75494036479059   -1.14291676095398
H          -1.25337527832188    1.82122937638959   -2.03370760210572
H          -1.74431330787599    0.79501304986968   -0.99794283834090
N           0.50102181557452    1.68801059275402    0.48637310803440
H           1.22886952103096    2.36005685814378    0.25663433203988
H           0.83433851924263    0.73262729497785    0.20265964841187
H           0.23503993327882    1.65123042859299    1.50277635964704
H          -0.34763025121721    1.88402275951045   -0.11198490011213
