    26
        -50.46740511  Gyration_radius:  2.44320909061 Dipole_moment: 4.851
 S           0.01117739344294   -1.59451090069664   -1.27709748463935
O           0.32064339371463   -0.59161536952254   -2.27821755914398
O           1.02702233519022   -1.67511563403016   -0.23946606982163
O          -1.32630875044214   -1.45675550102544   -0.72137995325403
O           0.00920594311115   -2.98969275408779   -2.02675716482532
H           0.83617366513144   -2.98367090189004   -2.49809483077802
O           1.53589213783773    1.67066465788963    1.36638445681213
H           0.66124897682464    1.96289419118523    1.07384334628813
H           2.01015425265470    1.39756380938320    0.55482292973525
O           1.08777541179907   -0.75419155973534    2.31418560258381
H           1.28280065419724   -1.26100451383459    1.50607003630950
H           1.41362230100908    0.16310388336649    2.12182424944836
O           2.44428403706055    0.50396941453112   -0.89735901761674
H           1.97866648216039    0.68474987117533   -1.71958477501324
H           2.09255825187635   -0.36085999168084   -0.61870995795031
O          -1.64584211632801    1.07224095144731   -1.80038264592404
H          -2.28815381670911    0.37776874234913   -1.62463046009450
H          -0.85342227210325    0.57338363817056   -2.09740256604005
O          -1.15142325500412    2.14047238198805    0.53953884031995
H          -1.29605463533825    1.79865142817451   -0.38550200158206
H          -1.49456612318685    3.03481793804572    0.55366850728484
N          -1.36136541893204   -0.34129346404478    1.65109616548526
H          -1.41312387491160    0.66882738215122    1.42949823340956
H          -0.36765448162404   -0.54712332480441    2.06594058379354
H          -2.10706825464909   -0.62706508036797    2.27510263610475
H          -1.40624219677443   -0.86620929414018    0.73260889911828
