    26
        -50.46480195  Gyration_radius:  2.41923049361 Dipole_moment: 4.302
 S          -0.30677279945194    0.75692525446407   -1.77901980093227
O          -1.17959797695816    1.17228574433630   -0.68266841759820
O           1.03157765758985    1.29897766146696   -1.62546160743201
O          -0.34669641907396   -0.66759211625632   -1.99375080969375
O          -0.88883239945655    1.43472090641238   -3.08737782293715
H          -0.50262421089793    2.30139927524554   -3.02470856127599
O           1.86722317740831   -0.68575237711953    0.01787992222003
H           1.86541099160375   -1.55151643514927   -0.39505629326768
H           1.56106354950112   -0.06226576074521   -0.66188768791561
O           0.18363885248219    1.38411367831002    1.60992101642771
H          -0.33101633148863    1.48115634668413    0.78461709646210
H           1.09319809852129    1.67867273156899    1.37890874639646
O           2.57014503869080    2.01453271919456    0.55285631405637
H           2.14417566219036    2.00237197402327   -0.31938819710362
H           2.96387701591634    1.13995411075920    0.64125259951991
O          -0.08486758720444   -2.70956183257064   -0.37859994798101
H          -0.85939590554889   -3.25941312967964   -0.50811014790166
H          -0.17199624001598   -1.98074520199429   -1.03764824134960
O          -2.75264763159987   -0.45358097494450    0.64483986637882
H          -3.40629866307945    0.13988942239568    1.01874259789013
H          -2.21670599481020    0.10381261919626    0.02948152347764
N          -0.43604029440951   -1.12912500379788    1.78946431403298
H           0.01021185387889   -0.14501226364046    1.75881688033820
H          -1.44278638041346   -0.97363868123244    1.54249344505454
H          -0.04520519909118   -1.72873747278756    1.02613014060831
H          -0.31903787435867   -1.56187119404638    2.69827307256098
