    26
        -50.47359332  Gyration_radius:  2.4662095894 Dipole_moment: 1.467
 S          -0.92098359919447    0.81960905609282    0.73152537757359
O          -0.72797353966660   -0.30802981486077    1.64191175441313
O           0.35711947697713    1.43753846394326    0.39888223228630
O          -1.65125443673580    0.44231344848380   -0.46640089394752
O          -1.79632584960126    1.87969488373091    1.46611371572560
H          -1.39071856066717    1.94589773833551    2.35369938392229
O           0.83512192360616   -2.18611981217781   -1.48670772712244
H           0.03644500265042   -2.45700532997193   -0.98022821418990
H           1.41519605579048   -1.76704460827137   -0.81592256308761
O           1.82694748865120    1.76950585662767   -1.78443333719944
H           2.64127296637496    1.33713671186216   -1.51432247996717
H           1.31054427554458    1.87932854240051   -0.95913449852607
O           1.92786358627910   -0.70313841169753    0.48148368115957
H           1.39909225586712    0.12114638585055    0.48996528337473
H           1.68876758072336   -1.15383467624105    1.29437539336125
O          -0.56383358785652    1.26944690367299    3.72395183071288
H          -0.47069726277176    0.51211499815583    3.11072833296167
H          -1.11064072179362    0.96736096407027    4.45277333312649
O          -1.38097390702613   -2.32509818766078    0.01252242622717
H          -2.07596984152257   -1.86272973296998   -0.46337297532767
H          -1.12607695269627   -1.70078981967272    0.71901700325483
N          -0.05181470089908    0.02141514629165   -2.51720536321182
H           0.72047475306587    0.72934057139216   -2.42555828417631
H          -0.45828580066798    0.02311547983681   -3.44567807697072
H           0.33802381287033   -0.94879428796061   -2.23606744068748
H          -0.77132042730065    0.25761953075570   -1.78191790369303
