    26
        -50.47143909  Gyration_radius:  2.46916513042 Dipole_moment: 1.908
 S           0.47716640202051   -0.96283553458604   -1.65590138982164
O          -0.38506027865728   -0.65674809084313   -2.77108766416477
O           1.33386939240287    0.16695980810763   -1.28668008362639
O          -0.19536759526636   -1.52058624279259   -0.50348294572943
O           1.46452779029869   -2.10263414500374   -2.16657953404750
H           1.54206343046571   -1.91675792822716   -3.09652659648751
O           2.30627417320891   -1.41768663732267    0.64982486932136
H           2.17580109472321   -0.80062110266434   -0.09009405723041
H           1.67245252143432   -2.11963355214692    0.47378821147824
O           1.17876688036762    0.09611131918026    2.56634534139148
H           0.28451591597242   -0.28195851431284    2.56195291131208
H           1.72345021551802   -0.51658237550446    2.02324868329522
O          -2.35676231523466    0.77898605301219   -1.76165207429769
H          -1.65021877250737    0.20083711896447   -2.12044147368929
H          -2.74551207128119    1.22042266387888   -2.51851811823169
O          -1.32981141382951   -0.76932279024028    1.73841545459042
H          -1.96672301148301   -1.45083400340641    1.95729481804351
H          -0.92471350734304   -1.04664386544615    0.88365729569929
O          -1.92036329049367    1.71135228710041    0.72036528758589
H          -2.17534230525393    1.45114826919699   -0.18761698167015
H          -1.92207883987904    0.87902202389503    1.22624669721852
N           0.69512751090772    1.84273667548476    0.66855677023223
H           1.15953399364736    2.74314989078279    0.65817270218623
H          -0.37016612073030    1.93781154074922    0.67684607195988
H           0.96092849527925    1.27198545979529   -0.17097946570932
H           0.96764171571258    1.26232164234569    1.52484526038777
