    26
        -50.46625403  Gyration_radius:  2.48896637249 Dipole_moment: 1.565
 S           0.55648861339898    1.85385015394795   -1.11972445014935
O           1.90058186328819    1.62034326434860   -0.61715882863645
O           0.10129409368013    0.77852090015367   -1.97625000879729
O          -0.38668070890775    2.16380535041866   -0.05406260580381
O           0.62394228873396    3.16286266734543   -2.00898168908240
H           1.25907867014607    2.92853488204628   -2.67770086513709
O          -2.19590588686011    0.40609717332365    0.59198063160528
H          -1.59912055796822    1.11316101874328    0.24446099549715
H          -2.77567162105238    0.83722207737292    1.22191227156697
O           1.77457737708677   -0.99851528888935   -0.61465148409777
H           1.30244417248502   -1.19353959218608   -1.42950723018330
H           1.96349555995068   -0.03402748554519   -0.64983261848138
O           1.10283201365338    1.50793984875914    2.05681777838052
H           1.95814291709028    1.55127024009338    1.61568352795238
H           0.49701231053238    1.91443313562321    1.40413124785438
O          -1.30214224144063   -1.43008258777810   -1.31002343932048
H          -0.79694265735266   -0.67269729620580   -1.66159227924366
H          -2.05932400340580   -1.02196322678361   -0.87685564054854
O          -0.72357558680030   -3.29135592412250    0.64669380116121
H          -0.90930699459114   -2.71644611280846   -0.12005134449491
H          -0.77486315770478   -4.18947193531306    0.32026768524274
N           0.09205763702835   -0.86817793196554    1.43009184823800
H           0.52196233566561   -0.06920717799273    1.95675562241011
H           0.71828105823426   -1.04503241433588    0.58801276811146
H          -0.00197055016100   -1.74458833565573    1.94050214828008
H          -0.84668696472338   -0.56293541258948    1.09908217767215
