    26
        -50.46276880  Gyration_radius:  2.52140770451 Dipole_moment: 7.613
 S           0.11123524384975   -0.80319769584691    0.03366922904301
O          -1.26440226638461   -0.66826153045653   -0.41632970630642
O           0.69531052819980    0.49083131441019    0.40104274432255
O           0.15463442266022   -1.71897192084527    1.26375543666228
O           0.95595543622286   -1.45153690909047   -0.97734061510153
O          -3.44746854269815   -0.96483796023777    1.08601075297156
H          -2.72989173580281   -0.77337503487702    0.44858004436448
H          -3.79878688825521   -1.82230006252625    0.84081775828519
O          -0.50566488824981    1.64890485738715    2.45345876471826
H           0.20128084829272    1.98552938575794    3.00617727348785
H          -0.07822006154190    1.28419115637261    1.64835688378554
O          -0.49580447400919    0.27324611567946   -2.76679905491444
H          -0.92622331257917   -0.00635413863806   -1.93348803151946
H          -0.11824355400549   -0.53278948409218   -3.12500466646715
O          -1.50421787699735   -0.79435856717832    2.92338941038923
H          -0.51142033127867   -1.37878892438419    1.97695021045092
H          -1.26541496709456    0.15702204022915    2.91617633416731
H          -2.34689633086829   -0.85349080718183    2.42301793982587
O           1.20211809632869    2.03050659588916   -1.69402363539303
H           0.89950689384939    1.76527530190103   -0.80145081031964
H           2.30893287037679    1.00801787548492   -1.67850299268256
H           0.53435104741885    1.61920336577636   -2.28450903637624
N           2.89344101763005    0.10068151438406   -1.49780280165422
H           3.48015454832218    0.22569726463773   -0.67944985965785
H           3.44462823012488   -0.17981594632100   -2.30196110652563
H           2.11110602648952   -0.64102780623740   -1.26474049555754
