    26
        -50.46276878  Gyration_radius:  2.52143376905 Dipole_moment: 7.616
 S          -0.59209828971036   -0.54853549812705    0.08261806322425
O          -0.68871300648162   -1.72117172668438    1.06716274143236
O           0.81605869360615   -0.37069118564811   -0.28623549998332
O          -1.35982692033965   -0.95603199970186   -1.10081753658089
O          -1.14474340011418    0.64499121932616    0.70157204537338
O           2.40827562326877    0.03667191243094    1.78608989534336
H           3.18192902760908   -0.50532813461970    1.62401426508596
H           1.84171221481499   -0.04348287395851    0.98829754301792
O          -1.30910313352386    1.12693866281768    3.31910416598287
H          -1.25273590192853    1.09486853840086    2.34252244771067
H          -2.23177354653035    0.98507084530206    3.53676086606792
O          -1.33896926636697    1.87242467461716   -1.63463907759988
H          -2.04933942323336    1.34843507543802   -2.01068273539670
H          -1.27605581961703    1.57036178351670   -0.70588208866266
O           1.14856757520337    1.23818347629707   -2.36405947261332
H           1.29339872561543    0.83184687195763   -1.48510494076562
H           0.68285215529867   -0.07024713205887   -2.94891664994156
H           0.30940519595295    1.73292397219565   -2.24256981461938
O           0.37402601841494   -0.95608488022416    3.22272240358720
H          -0.26302747850977   -1.45546051497074    1.97059263777868
H           1.20816107956183   -0.56120073268169    2.89029652529640
H          -0.19315593468236   -0.19351149244811    3.46920622765554
N           0.22959525043058   -1.05827873935268   -3.07496454895728
H          -0.49278215822909   -1.09416665837526   -2.24222007444273
H           0.92913052944568   -1.77935680831363   -2.93275668253687
H          -0.23078780995691   -1.16916862513432   -3.97211068545750
