    26
        -50.46308227  Gyration_radius:  2.52942047234 Dipole_moment: 3.940
 S          -1.41969382394882    1.56420315828441    0.18931667336711
O          -0.01195025752414    1.85768356888567    0.39170679200474
O          -1.74321363955837    1.18037988521213   -1.16680694399733
O          -1.90835772424129    0.59651297565702    1.16745613605738
O          -2.18959111782995    2.91966655308516    0.47404109208426
H          -3.05465732086480    2.72001798997826    0.13247676898126
O           1.75635943024321   -1.27609001138940    1.43940712234019
H           2.35406704237013   -1.78722693406207    1.98608033576032
H           1.54926857407140   -0.44120740246881    1.94047750542194
O           1.13283061772355    1.00030806722004    2.57907952539122
H           1.82964827802602    1.64582858939322    2.71401463726954
H           0.59007588666003    1.35595358870464    1.83478793666983
O           1.04620761905672   -0.78447124285281   -3.06012332853371
H           0.93201419647576   -0.09452972921648   -3.71547218289380
H           1.45348707156297   -0.34566890755033   -2.27699541670616
O          -1.28434488863506   -1.32886827779404   -1.90237347593453
H          -0.44468465035805   -1.25518319908110   -2.41533943724360
H          -1.57085223096432   -0.40074455014661   -1.76010096811994
O           1.91079903075142    0.41859949182959   -0.84524734425355
H           2.03577654233019   -0.24185745459389   -0.15132283545150
H           1.23510378092309    1.03489089497740   -0.50669670837130
N          -0.82845432550369   -1.69523995169223    0.60586399012883
H          -1.28835769331307   -0.79363059173365    0.94047925243768
H          -0.96348345787519   -1.67474098863948   -0.47647576905097
H           0.17325583943447   -1.67481252270289    0.86747204374731
H          -1.29125276900527   -2.49977300929784    1.01429460888753
