    26
        -50.47142893  Gyration_radius:  2.45701865808 Dipole_moment: 3.748
 S           0.00525924087056    1.66820833020101   -0.17003995361225
O           0.93858005150067    0.91595877566997   -1.01796989168158
O          -1.12699800737455    0.80240204616025    0.19148008145172
O           0.65956620287871    2.21566416434022    0.98850427828070
O          -0.55874962056980    2.83591697892838   -1.02993188493014
H          -1.10725708025805    2.38216854263534   -1.70635819407251
O           2.42815563175329   -0.12271547116302    0.89774419277690
H           2.06579311575291    0.29088753271171    0.08649584029128
H           2.49529301719512    0.59680744739271    1.53230971230903
O           0.25961077564783    0.75964078750917    3.21766125542207
H           0.09532502141650    1.36131334369068    3.94482526355288
H           0.37235481322143    1.32986741601837    2.43149259967031
O          -0.61197890357046   -2.95603589955646   -0.55970866736794
H          -0.36489136350153   -2.31786789238310   -1.26625444172083
H          -1.53745338107130   -3.16108128238433   -0.70179332234920
O           0.01561593186161   -1.07277510014453   -2.39094929421851
H           0.71623723950024   -1.32025746368033   -2.99718342127634
H           0.38167436116978   -0.32009326466575   -1.85518273703161
O          -1.96334521765060    0.99499014754871   -2.32188639560144
H          -1.42521638072889    0.30064875647809   -2.72494609064527
H          -2.00454054816253    0.76102523435504   -1.37909188834096
N           0.04882941417209   -1.22102116139806    1.38269958633920
H          -0.51202020585561   -0.41867001654577    0.97919428294962
H          -0.15924746769578   -1.28851498078570    2.37612757783108
H          -0.17292031318356   -2.07309560428694    0.82405832682260
H           1.06232367270357   -0.94337136636786    1.26870318509659
