    26
        -50.46678481  Gyration_radius:  2.49171940311 Dipole_moment: 2.282
 S           0.69532641176153   -1.38809033565595   -1.53851486757476
O          -0.26952251582440   -2.42601426540857   -1.25793410517720
O           0.07167864262527   -0.10823914541326   -1.85950256428156
O           1.70184567505553   -1.22824120639544   -0.50065450396186
O           1.47369124562112   -1.85343613219317   -2.84040133889550
H           0.81866332943135   -2.39059802875811   -3.27366794439841
O           1.49850262149638    1.61764525183763   -0.52220365944696
H           0.96286077474710    0.98479126322913   -1.06104372452790
H           2.37807142615509    1.23394934610774   -0.51601544169117
O           0.58458809471909    1.46514295118097    2.03896632839833
H           1.02878382034235    1.56868706822152    1.17069267100553
H          -0.21837462377033    1.98993362721301    1.96383213451654
O          -0.88323489713661    3.01036032347014    0.10518579140638
H          -1.26373937751546    3.64406517852703   -0.50460170706843
H          -0.02769928205026    2.74639224969797   -0.26433476585817
O          -1.84482147707192   -1.87520672897169    0.82270925615930
H          -1.43095388964224   -2.27387824246796    0.03011326740616
H          -2.17693462601902   -1.01008897750308    0.50069326065527
O          -2.07783695896381    0.50898708584154   -0.34987644487000
H          -1.82411610640410    1.39673735546339   -0.05469432048060
H          -1.40931762893854    0.26290296677716   -1.01459533574369
N           0.45000014686698   -1.18422241183946    1.81352253982807
H          -0.54769278180300   -1.50125712340747    1.53932159957689
H           1.03695741531326   -1.28565803763771    0.94250054561329
H           0.44699198958928   -0.16082108290246    2.06011011253227
H           0.82628258144042   -1.74384296901415    2.57039324687490
