    26
        -50.47673589  Gyration_radius:  2.41868824938 Dipole_moment: 2.607
 S           0.79098500658444    1.06565924156885    0.90434979173023
O          -0.41872726017569    1.86712255377139    0.81918224280648
O           0.46713054705299   -0.28799461753936    1.38052535829512
O           1.52859521260416    1.02208483377014   -0.34397726728161
O           1.74300090073982    1.70537252650060    1.96077197990129
H           1.18625765810837    1.73960417390455    2.76305035385788
O          -2.13295092891763    0.98271109170370   -1.01490206096751
H          -2.28046465173176    0.10417840474495   -0.63091457681445
H          -1.62362144832153    1.46885271465673   -0.33229544161090
O          -0.40357068324437    1.33641401066917    3.45220794967713
H          -0.79719130003884    1.74630254802942    2.66596925932783
H          -0.32844174641801    0.40001027872858    3.23613063440999
O           2.10011753507932   -1.72590693188064   -0.19741208997775
H           2.62421073599356   -0.99390395994718   -0.53439746852856
H           1.55039638330086   -1.32103254469178    0.49920633417531
O           0.07714827527751   -2.16704625730548   -1.89532801271396
H          -0.64348073347479   -2.14840727753755   -1.24287318423690
H           0.89936754266045   -2.19230707558366   -1.35384963179017
O          -1.57666785213211   -1.44886054444535    0.20503000378841
H          -1.97441910488322   -2.04780957385068    0.83887465592802
H          -0.81860559485919   -1.01842669544634    0.66917957031704
N           0.01159320707594    0.39417003343983   -2.40847213213316
H           0.20548141818113    0.76556738306968   -3.33111356448138
H           0.70494341957770    0.73645863463291   -1.69500389440046
H          -0.94017101427869    0.69474693716561   -2.03804658226228
H           0.04908446622869   -0.67755986814151   -2.37589222700884
