    26
        -50.46276880  Gyration_radius:  2.52139655829 Dipole_moment: 7.614
 S          -0.69922052828066    0.26888704182361    0.31214311199561
O          -0.94068585674421   -1.14985888253477    0.10750144444233
O           0.69826725694439    0.62854309309167    0.05078219545626
O          -1.58116618020398    1.09878333996611   -0.51819808817532
O          -1.02794081986487    0.63460267462189    1.76537006909807
O          -0.89505212522460   -3.04077174380579    1.98717493230463
H          -1.81705806489549   -3.24451426542066    2.15200668502282
H          -0.88265550873511   -2.45449905780909    1.20356435622794
O          -0.93122945401986   -0.86161084834289   -2.52288696095043
H          -0.90647098749569   -1.12814150322811   -1.58154343414782
H          -1.75527253330312   -0.37881331083635   -2.61479428671803
O           2.41347377791445   -0.52571584449650    1.70040823140892
H           3.03508480066868    0.16180442385972    1.94436194803304
H           1.81590892296306   -0.13298431100978    1.02766472527841
O           1.31748361155623    0.57546346146465   -2.52409313889983
H           1.39598471543630    0.43767138261716   -1.55791881151502
H           0.61887129054151   -0.06419449888997   -2.78203667558215
H           0.54424769178081    1.85431166753671   -2.33037928001665
O           0.25703785064203   -0.96565371395842    3.23137942188066
H           1.14755802561520   -0.91965785481882    2.82264741432513
H          -0.52130135825635    0.00365311626343    2.40820384415664
H          -0.10987532494069   -1.83350610486768    2.95541729161549
N          -0.12746645278994    2.62151978082343   -1.93321347786522
H          -0.63204108643026    3.11810068935732   -2.65982722705894
H           0.39280172698656    3.26489004024486   -1.34589522675699
H          -0.80928339986839    2.03169121834898   -1.29783905356175
