    26
        -50.47513846  Gyration_radius:  2.42347915158 Dipole_moment: 3.750
 S           1.64490486099519    0.82514024016106    0.43008722906541
O           0.75289977893241    0.62397874836769    1.56858713452060
O           2.61164171670799   -0.24881712505159    0.31344534745515
O           0.91187795702328    1.08256692034036   -0.79128351073624
O           2.47437060592303    2.13188611143242    0.74082019786319
H           3.09011600940985    1.79070468636713    1.37887761841497
O           0.26986983191332   -1.00090667742846   -2.36617818092789
H           0.70471973184435   -1.69741530267179   -1.84597683554297
H           0.62427197015735   -0.16766308286018   -1.99963332504585
O          -0.71604062052624   -1.54088827180514    1.13012837373155
H          -0.04859451833902   -2.10981337255286    0.71212475931774
H          -0.21150194184228   -0.74888320755060    1.41411862365883
O          -1.40264381920674    2.11707889394094    1.95243455130433
H          -0.54951380978638    1.64072859679174    1.87002682213300
H          -1.90920396070766    1.63819508155238    2.61045168033455
O           1.42530895099909   -2.45613571160384   -0.33528116065619
H           1.92280203831972   -1.63470383199348   -0.08220940491265
H           2.06120805906603   -3.17222329094182   -0.29682043773368
O          -1.63425493190953    1.95081919732776   -0.72465899112351
H          -1.71747254378343    2.17794562033900    0.22303988522333
H          -0.67284400657253    1.85208159925419   -0.86528746699445
N          -1.96421288250352   -0.62478177809184   -1.01420060077512
H          -2.86221349910221   -0.99958025239161   -1.29513127023753
H          -1.62554745659282   -1.03076266671668   -0.09567210419519
H          -1.19836033810060   -0.84181283371460   -1.71597036950136
H          -1.98158717230019    0.44326170956442   -0.91583855464374
