    26
        -50.46572217  Gyration_radius:  2.46805832598 Dipole_moment: 3.841
 S           0.41775589770918   -1.29525318309632   -1.64556052900114
O           1.44483156590228   -0.28535484978171   -1.39176545689064
O           0.23254401878275   -2.16125694812422   -0.48347210177003
O          -0.80944067928317   -0.73289608773840   -2.13637307420833
O           0.99282664880343   -2.22995883686676   -2.78597784680045
H           1.69050104887208   -2.69869827088435   -2.33980860671832
O           2.05371692401042   -1.05017697407110    1.07746249393067
H           1.38448552040640   -1.70862112926569    0.82054168486234
H           2.15798648436999   -0.55768061204859    0.24576371383089
O           0.93781405529794    0.40899338697633    2.96617275736106
H           0.77123109500382   -0.19696186070379    3.68957208238039
H           1.45241314112231   -0.10996292005359    2.29283913406345
O           0.66103850366207    2.09698767248958   -0.69651543828329
H           1.47597960831086    2.50794383753661   -0.40189125703040
H           0.92362279047557    1.22107749895906   -1.07344602554114
O          -1.99198456766124   -1.08979002003141    0.41612170488845
H          -2.46671551807166   -0.87552955425884   -0.39335997538621
H          -1.20545574208676   -1.59972967231034    0.12070992403858
O          -2.08018976215480    1.50412135474457   -1.27845688508758
H          -1.69783289192608    0.71104075005999   -1.69262957077179
H          -1.53081574930314    2.22704548900071   -1.58848994879145
N          -0.96823716462884    1.19614846311908    1.27207907201648
H          -0.43189679889367    1.60728156760766    0.46859387816700
H          -1.43361814369230    0.30023330778135    0.92672265500908
H          -0.29571573480446    0.96043615851134    2.04364731171174
H          -1.68484456023294    1.85056144244509    1.56752029402688
