    26
        -50.46276880  Gyration_radius:  2.52140500719 Dipole_moment: 7.614
 S          -0.71600643856968    0.04203006164070    0.37967095155131
O          -0.55333480518162   -1.37806079162914    0.11527502256972
O          -1.87166871235449    0.60173745838584   -0.33250786662960
O          -1.00432602153691    0.25002373200791    1.87207980472568
O           0.48779035776657    0.80395524883884    0.03185717502036
O          -0.86465144250202   -1.01853847634433   -2.48778353405259
H          -0.67906135474166   -1.29502101542480   -1.56751473122159
H          -1.79806789756473   -0.79644855232407   -2.48884013549584
O           0.20715657311867   -3.22949120107810    1.87727973417638
H          -0.59755457596720   -3.69972686470097    2.10109137045506
H          -0.02141763086296   -2.64147743607470    1.12901255774129
O           2.60519938185471    0.15340218550915    1.47715525503571
H           1.86140738147195    0.37410271338957    0.87551506063504
H           3.02025610600222    0.98517659526931    1.71055182811395
O           0.86126471513309    1.01474051477845   -2.58202245097636
H           1.06302471705206    0.87625694984328   -1.63399442318188
H           0.35781249611851    0.20645340270769   -2.82068993919346
H          -0.22875390895208    2.00357750535145   -2.25810673834928
O           0.81584969618141   -0.94712722734137    3.14289039613032
H           1.61422747773273   -0.62921849415036    2.66988154548807
H          -0.28082482011617   -0.22398329589313    2.43765707737393
H           0.69281483017700   -1.87548812616767    2.84800020233266
N          -1.05540787600046    2.52710714108985   -1.76809043123383
H          -1.47684811424850    1.74376066887209   -1.11599104516554
H          -1.74556864768772    2.87583354271721   -2.42476518709181
H          -0.69331145632082    3.27642380072583   -1.18761148875506
