    26
        -50.47201670  Gyration_radius:  2.51643032402 Dipole_moment: 1.534
 S           0.27376790090273   -1.45676126670315   -1.33919434287842
O           1.41054602962999   -0.95730204883267   -2.08205352408065
O           0.50135167552673   -1.38715231071869    0.10454203299515
O          -0.99150041364677   -0.85858346268266   -1.70868792806896
O           0.14969987350070   -2.99436700890132   -1.69253774128346
H           1.05354077574697   -3.28441480267653   -1.63168664933569
O           2.14725464565612    0.43930764500255    1.28935634230036
H           1.69888238579459   -0.35388040168124    0.94899523386116
H           2.20833863356093    1.02476454602926    0.51956411852460
O           0.41559214980661    1.26025549320157    3.13607906832069
H           0.64065902066289    0.82902764721938    3.96108981460195
H           1.15363430357365    1.05478425828936    2.51023410775594
O           1.86019045835135    1.47818389174123   -1.27606743060505
H           1.74109955855566    0.55384058045583   -1.60938921313689
H           2.46214841410793    1.90601783503525   -1.88735376933483
O          -3.03583864836847   -1.17896777775990    0.01214609731466
H          -3.82826430477439   -1.44917712453960   -0.45255907507503
H          -2.32764136054837   -1.13803712102145   -0.66157703096966
O          -0.85576926293096    1.77005458484089   -1.08471691277365
H           0.10494365229225    1.90967799737707   -1.15245546543478
H          -1.02325470029311    0.93146906564761   -1.55036751826719
N          -1.17052190356154    0.39083774484646    1.15899170546097
H          -1.13278173928124    1.11884753641249    0.39441900414735
H          -2.11764340677470    0.00500659408546    1.20705067237153
H          -0.54103703545369   -0.38318178317588    0.83167119704769
H          -0.79739669203932    0.76974968841543    2.05450719655168
