    26
        -50.46297879  Gyration_radius:  2.72676034023 Dipole_moment: 2.981
 S           1.23736607620137   -1.32480209544903    1.74930937662562
O           1.04507245491547    0.05815821809327    2.16411556787356
O           0.07659006874136   -2.14860772415576    2.02867278813837
O           1.70041303846607   -1.40871574344693    0.37234602094209
O           2.42456004906461   -1.91044812643976    2.62832479634647
H           2.04582878101153   -2.04212490196041    3.49296367951950
O          -1.60858250020277    0.21534560451300   -0.44767346317533
H          -1.45101931434923   -0.74992408665208   -0.59175655281612
H          -1.81398440385032    0.28178706583651    0.51726683503319
O          -0.80593328954608   -2.30622345389357   -0.47065689838572
H           0.06256034128124   -2.36053925209925   -0.88011924381629
H          -0.61390233369753   -2.38851942634450    0.48609195242232
O          -1.60853931271583    0.10281920058550    2.18824907943251
H          -0.64199958465690    0.22200427843451    2.29523993272599
H          -1.74321377259467   -0.83054711027239    2.38089804645234
O           1.08719198100899    2.26279622250780   -2.70973449819846
H           1.45791779855223    1.87696488023121   -3.50464344438456
H           0.11197169411987    2.19274922495750   -2.79894310308381
O          -1.57249683677181    1.81265601138789   -2.68150132330846
H          -1.72115507134696    1.18910689918827   -1.94788901635619
H          -2.23687285423484    2.49734187185978   -2.59250751866040
N           0.93428694315869    0.97517708029076   -0.35011852002386
H           1.40372253964188    0.03794170135064   -0.22229973201249
H          -0.10718624197580    0.76390340214288   -0.41022767791856
H           1.11504725376830    1.48741970014075    0.51254763938274
H           1.22235648601529    1.49428055916783   -1.20795471273912
