    26
        -50.46698833  Gyration_radius:  2.50098850716 Dipole_moment: 1.310
 S           0.41953925608443   -1.72382448981628   -0.82951115781932
O           0.58948986737322   -0.75497897719892   -1.90142675976966
O           0.91195015478823   -1.20466392371458    0.44019330752993
O          -0.93267399318590   -2.22443036795059   -0.74429462841001
O           1.34994413115470   -2.96000252039611   -1.17190329440679
H           0.86049824602865   -3.41171785476974   -1.85223297070808
O           2.43758105808598    0.66422366676275    1.61678401706078
H           2.98047849466703    0.25643385274802    2.29226925619035
H           1.94543950648340   -0.06414531398547    1.18928455312026
O           0.37515364674280    2.51174026400522    1.53125714465371
H           1.12481751058046    1.99007914346231    1.86424151110701
H           0.60365917246509    2.65422899657136    0.59934851464687
O          -1.39342282279902    1.01010165284258   -1.88548056083883
H          -0.78947586406271    0.26503186238195   -2.08395920869834
H          -0.88038701294488    1.80213915294777   -2.07234567864927
O          -2.83651046422396   -1.56285271942400    1.03599609081115
H          -3.68461597635556   -1.75810294856944    0.63498265430157
H          -2.16306807214346   -1.92700028654208    0.42470554121877
O           1.38159196790970    1.67585677456748   -0.93920122029160
H           1.18696521968234    0.81172101255154   -1.34459669311515
H           2.15621482311469    1.52476963093864   -0.38904255593454
N          -1.14923301856126    0.49833377522696    0.73873175198619
H          -1.37865725708159    0.76547976628880   -0.25344244046300
H          -0.78899203266874    1.34330274363422    1.25017924549745
H          -1.95879934641339    0.00928316767977    1.15328583867951
H          -0.36748718471721   -0.19100606024447    0.69617777229887
