    26
        -50.46873380  Gyration_radius:  2.55176083629 Dipole_moment: 1.248
 S           0.43831734580252    1.20263997541617   -1.76283153864936
O          -0.40902392147472    2.21009019812541   -2.35452601841640
O           0.74153421539985    1.49007501181710   -0.35787952547969
O          -0.05352479028033   -0.14982661981597   -1.92812513228799
O           1.82896409021920    1.25773704241576   -2.52607892154866
H           2.00092240680085    2.19033713866386   -2.61578290631647
O          -2.62452841853192    0.94927270724811   -1.67869966503175
H          -1.93300865277722    1.56081629726733   -2.01441136251578
H          -2.42776190304945    0.11274755500044   -2.11051399741343
O           2.24751208749170   -0.24719971838927    1.05026016074099
H           1.99332142172244   -1.03721799446788    0.54951929058499
H           1.83436474771484    0.49240401908500    0.56859670196688
O          -1.00045924430379   -1.73053401691128    1.51113028989091
H          -0.43040221798481   -1.46113470991246    2.26423969089050
H          -0.38315824264839   -2.02667731698966    0.81645307090352
O           0.73788822930853   -0.60987775397517    3.20156995713129
H           1.36198287061836   -0.38990945871729    2.46453970008085
H           1.26871121559832   -1.02098592851659    3.88422143373091
O           0.84855121101006   -2.10385957426046   -0.47503392163048
H           0.99797759398912   -2.84812833870713   -1.05950304314150
H           0.52284160801963   -1.36558226332832   -1.04974094045121
N          -1.52855575515543    0.71310274534683    0.74131584482938
H          -0.58670053439462    1.07808101063838    0.44843839066451
H          -2.13217566825338    0.77571432000458   -0.12041189280080
H          -1.40741453207740   -0.31228366423968    1.05244748504964
H          -1.90617516218856    1.27019932669238    1.50080684943728
