    26
        -50.46895380  Gyration_radius:  2.40898503977 Dipole_moment: 1.815
 S           0.40081010067362   -0.14871924868534   -1.68831960719473
O           1.15483933246049    1.05761178366415   -1.41260918224325
O           0.65988752081762   -1.21755083231291   -0.75107698696787
O          -1.02656562091828    0.11914471487727   -1.83958132055167
O           0.90860606181395   -0.66656979872510   -3.09763488549378
H           0.96158186204646    0.13735178478089   -3.60355688962148
O           2.81329263032298   -0.06556124586915    0.59730716215667
H           2.16848451917433   -0.33932007306735   -0.07288154155116
H           2.90599491975441    0.88253298920034    0.48600524590559
O           1.34298142713820   -1.98753894882940    1.81430115257843
H           1.13715922631168   -2.14176926830103    0.88010321563218
H           2.11025315666561   -1.39340487623759    1.76911965873392
O           0.03261118729379    1.88521589463695    0.84209051174956
H          -0.80656599243140    2.22133118570167    0.46919055740703
H           0.55911896847606    1.64206788292999    0.05230270812699
O          -2.04302383545434   -1.52996080446725   -0.05281096795634
H          -1.78822198889650   -0.91072722549996   -0.77201611253873
H          -1.51895097917104   -2.31792318886384   -0.21810950101349
O          -2.16430070493866    2.23418512487485   -0.65751665474590
H          -2.30938396802358    2.91564298042032   -1.31522160760153
H          -1.83990676010585    1.44838697484941   -1.14337926994950
N          -0.74378208723886   -0.36149042800274    1.96982730073534
H          -1.23100562106376   -0.23652731078403    2.85005414603397
H          -1.37310776817753   -0.79750626223926    1.24248643407214
H          -0.40472504350284    0.57585679938102    1.58279333093527
H           0.09391946696125   -1.00475859341854    2.06913310336819
