    26
        -50.47102563  Gyration_radius:  2.46807744351 Dipole_moment: 2.520
 S          -0.44032688182076    0.18532347463089   -0.69150499983817
O           0.46093865990746    0.61136732470299    0.38699646177284
O           0.29205086394771   -0.01667946584253   -1.93047679996303
O          -1.23870604353062   -0.96164360458789   -0.30160757049501
O          -1.46937280720124    1.33891016406520   -0.89151452929180
H          -0.98113289411835    2.15662342300213   -1.19536914949384
O           2.08590237512644    1.87567822905956   -1.45556476742310
H           1.58697259762127    1.12622525610002   -1.83619512177523
H           2.06712239554121    1.69435815979032   -0.50889908288756
O          -0.07615068405950    3.34890831940647   -1.75696874030361
H           0.82880393500044    2.95720391906946   -1.64569029796636
H          -0.21475041166398    3.43652126052135   -2.70250999320458
O          -2.54661779420191   -0.00924549943683    1.77787262411406
H          -2.24129846975788   -0.40690819890997    0.93358455049591
H          -2.75760718795174    0.90133018555685    1.56324406327629
O           0.00151420819476   -2.97727465261480    0.98719186411761
H          -0.70511787833737   -2.57147443863434    0.45594729080012
H           0.79529916601272   -2.81956859520657    0.43975226229012
O           1.73599246231076   -2.00742769444066   -0.85326434440079
H           2.08088279203250   -2.51901814999552   -1.58833184596049
H           1.21447484758357   -1.28428785509434   -1.25073148734242
N          -0.08307572647922   -0.81556797734777    2.46125741549227
H          -1.08989119189856   -0.56440594030530    2.54720922513810
H           0.27250163148200   -0.17415479992441    1.68120797927442
H           0.42871493436606   -0.70628246535617    3.32905710999175
H          -0.00712288808247   -1.79851039821141    2.04530789359491
