    26
        -50.46999612  Gyration_radius:  2.51772073529 Dipole_moment: 1.006
 S           0.94306690890502   -0.60422486440378   -1.51414087126340
O           1.80168472855527    0.16858269845785   -0.61910700166278
O           0.52189702534309   -1.84501073170575   -0.89495370271635
O          -0.15241421595610    0.19134190923886   -2.02792560381426
O           1.82462820160105   -0.99718997178564   -2.76568030379468
H           2.45185952673460   -1.61572525675817   -2.40464726114838
O          -2.73265680494382   -0.26543208657075   -1.56928827027394
H          -3.12020370255933   -0.86245623175826   -2.21031278439630
H          -1.79796954067550   -0.13932320824510   -1.83983932344635
O           1.94303080645262   -1.24980116475770    1.66141298834487
H           2.04391386485540   -0.76354340706025    0.82154841425324
H           1.31505779036888   -1.95123762456415    1.47067610128658
O           1.23755747335647    0.81463043386085    3.27265709835979
H           1.51594245286455   -0.01962040806762    2.83614334548929
H           2.03863905038657    1.22162810214614    3.60407834060385
O          -1.48448887212026   -1.15598758914217    0.69082700568020
H          -2.17759906476156   -0.91338598201923    0.05142811306220
H          -0.78875344263810   -1.58521921829641    0.15170438571494
O          -1.47458518840553    2.37785206756954   -0.96215790698841
H          -0.90582543135203    1.83359320543196   -1.53150452229667
H          -2.34896696310653    1.98388719184394   -1.04503721496683
N          -0.13570565829863    1.10336583449417    0.98242951598624
H          -0.68112760175758    1.85699654976307    0.52118742164732
H           0.67980076440431    0.88094621819202    0.37027687265872
H           0.21864443446293    1.30855710894409    1.93494696463970
H          -0.73542653169609    0.22677638516921    1.01527820904295
