    26
        -50.47392085  Gyration_radius:  2.4400371872 Dipole_moment: 2.170
 S           0.35283905061268   -1.35397244497540   -1.33309016179099
O          -0.99025886464191   -0.79262954494594   -1.28166680046744
O           1.21419171461504   -0.66537649834692   -2.26617681915746
O           0.91081881462808   -1.48860499446883    0.00380503463145
O           0.20531312511127   -2.82822375226932   -1.88938862316826
H           0.31762989945002   -2.66857463739546   -2.81931239466359
O           2.24636401433158    0.74346665217779    0.90126650521476
H           1.95198261146496   -0.13643065660710    0.61463405479443
H           2.22134928692210    1.28900961732459    0.09927100384639
O           0.00005349308436    1.49393887832947    2.11245503902321
H          -0.43106921144012    1.77621793474772    1.27408307745116
H           0.94027132579208    1.34809943132245    1.85197356105791
O           1.65142674338673    1.82654768078360   -1.58466668730036
H           2.19189122630062    2.25415437389715   -2.25053316002496
H           1.50622466088098    0.90204430736931   -1.89664256729763
O          -2.96325442393834   -0.82609823247974    0.48656903852855
H          -2.36133557282498   -0.92720276467272   -0.28068893640375
H          -3.30173290407446    0.07072258436875    0.42566900115719
O          -0.87044298129375    1.75803522418495   -0.40456610735636
H          -0.98388150609791    0.86017427253099   -0.76654954414265
H          -0.06865648714747    2.09080344875066   -0.83279179652567
N          -0.75708160297358   -0.96842781949589    1.99424947629501
H          -1.71934870984336   -0.97889139940520    1.57734007113348
H          -0.09271297417649   -1.30321152243635    1.25198504016888
H          -0.47451055190989    0.06878108572950    2.18702277223988
H          -0.69607017623364   -1.54435121401017    2.82574993275771
