    26
        -50.47530377  Gyration_radius:  2.42309720813 Dipole_moment: 2.978
 S          -0.72163343140049   -1.57121651843787   -0.05819584730980
O           0.65690127087407   -1.50213819483695    0.46500006856573
O          -1.40863248252802   -0.30686525822981    0.19531737955084
O          -0.76068142504759   -1.95186187057906   -1.44080277354074
O          -1.45382620536327   -2.66643620455475    0.78517195203711
H          -1.29191425910207   -2.38369863425393    1.69991502854059
O           0.24359071867731   -0.01327603435187   -2.97591942676319
H          -0.37470271753735    0.70108188275899   -2.75024647889869
H          -0.15817403259144   -0.82505088575814   -2.60134572583553
O           0.87580574022748    2.48898026159790    0.08396890393648
H           0.09389930255753    2.50324053872479   -0.49460562266071
H           0.54061070417223    2.17106231567809    0.94686776781191
O          -0.32315542682777    1.18835879895008    2.11590353292380
H          -0.14072378141642    0.57376595952962    2.83147096705990
H          -0.81868502592285    0.66285585370132    1.45682620609090
O          -0.14196906679431   -1.63573600557249    2.92429691116271
H           0.34091392316434   -2.28503746113586    3.43937701221533
H           0.34537541012140   -1.52720763271273    2.07640661101782
O          -1.29246426230935    1.71555015114511   -1.46291985280612
H          -2.16553863080810    2.10437112027720   -1.53326863213358
H          -1.38731239952617    0.94523234331302   -0.85161497888378
N           1.90365494128633    0.32420497348614   -0.97241954196829
H           1.38104703216243    0.22376122477421   -1.89768524254524
H           2.90740747391748    0.25267028471950   -1.09360378376570
H           1.61576986985781    1.25792384584509   -0.53007940224610
H           1.53443675017802   -0.44453485405754   -0.35781502156114
