    26
        -50.47523115  Gyration_radius:  2.42146641408 Dipole_moment: 2.930
 S           0.83261715511471    0.74026579648103   -1.49293653569449
O           1.59024089200761    0.55732304656175   -0.26174200831686
O           1.00261404262313   -0.37685352107067   -2.39935719057198
O          -0.55727007301511    1.06682689980756   -1.23562044956966
O           1.44600166369000    2.00472295536656   -2.21221464270349
H           2.30423694389070    1.67035057691773   -2.44527275138678
O           0.51256528309041    1.57102943654525    1.97551647147774
H          -0.10252611294845    2.23768836551679    1.61339146642276
H           1.06464067274550    1.30940689961428    1.21131143528625
O           1.42523689422721   -1.92371790448586    0.73813228709815
H           1.68517957983963   -1.05254805110183    0.37530123150106
H           0.95543095884790   -2.36410596563848    0.01067359906673
O          -0.16835245289637   -2.47917466324312   -1.44210951296006
H           0.26458056582173   -1.69040063689873   -1.86149010766692
H          -0.19783289769816   -3.15536656230812   -2.12077827807447
O          -1.98959128071299   -0.88723279876021   -0.13347893386719
H          -1.61110667636207   -0.09967654746450   -0.57536401013058
H          -1.57227910654862   -1.63346792877737   -0.59558964338232
O          -1.17107345634131    3.02323239436158    0.44712816869424
H          -0.93149890363718    2.39708157554528   -0.26706480189330
H          -2.12672814513906    3.09351272103148    0.42962232987274
N          -0.55121859151806   -0.81279028882123    2.08223003137913
H          -1.27339975417089   -0.83962725525113    1.30653103979346
H           0.27125850749459   -1.37886456575364    1.72158599642371
H          -0.19080562034473    0.19290215886219    2.17276364691709
H          -0.91092009806151   -1.17051612703558    2.95883114228486
