    26
        -50.46368680  Gyration_radius:  2.66979006566 Dipole_moment: 2.266
 S          -0.48467428588633   -1.16307254636254   -1.98252807820442
O          -0.44663328861031   -2.58813620297870   -1.74155173759571
O          -1.71953666755618   -0.53883090875813   -1.56662841544536
O           0.68558168786246   -0.46374472951895   -1.44149851343812
O          -0.36458400342059   -0.96425062758645   -3.55848244158962
H          -0.99569951858087   -1.59505505600033   -3.88943606871831
O           1.96083474883365    0.60182000234842    2.69058915411128
H           1.70830472735418    1.47435485699474    2.31219990956720
H           2.89712644312847    0.49473649275922    2.51854898848042
O           1.05777607887402    2.77231751978901    1.40676864969668
H           0.91279970578897    2.56407372437663    0.46419217315830
H           0.19953447739352    3.02018737158234    1.75729342767426
O           0.31529956837648    2.10776851404314   -1.13852946980231
H           0.50676117622625    2.55886560813735   -1.96149602258656
H           0.47372222821140    1.14645569416106   -1.30944770893588
O          -0.81221361757814   -3.10134171332991    0.81582250542542
H          -0.45565053208700   -3.97716821789181    0.97194877614515
H          -0.76480402482516   -2.96028024073526   -0.15865048086754
O          -1.78618330997016    1.17648893526789    0.45397771217318
H          -1.23613112975450    1.81234066445486   -0.02549595731664
H          -2.04430301475936    0.54242254369452   -0.24590281431510
N           0.08631793236868   -0.59088575109897    1.15309671822687
H          -0.27555722033667   -1.55113325330294    1.31123469316361
H           0.49636163348987   -0.58147356374812    0.19271256504464
H          -0.71113123996791    0.09752316522059    1.11591444613802
H           0.79668143543048   -0.29398227153496    1.85534798979520
