    26
        -50.47220517  Gyration_radius:  2.41999267342 Dipole_moment: 2.808
 S          -0.59085435756761    1.27564372875633    0.99142422474498
O          -1.26585847699824    1.06094602469093   -0.28481604414436
O          -1.31643426868112    0.69757216032036    2.09538308668822
O           0.80440298012416    0.88035865626415    0.94033065641494
O          -0.57907198393630    2.84542470127922    1.22927086115451
H          -1.38552446687173    2.96554468142832    1.71823056835599
O           1.81729266925811    2.71415048636737   -0.72644795484835
H           1.32225807697198    3.51089523225897   -0.52874113612142
H           1.56608579804976    2.07192295512634   -0.03945238068780
O           1.57869771304557   -1.61274080625785    0.87266487997434
H           1.34164129940898   -0.65678659938880    0.90103856992266
H           2.46892365090241   -1.67783603303784    1.22168564731046
O           0.57621872892588    0.77443361022636   -2.26682542771738
H           1.25714015566641    1.41856716883418   -2.01754196626103
H          -0.15743286552250    0.95596391104786   -1.65497159348265
O           0.72807703485330   -1.83263584215063   -1.75332630170237
H           1.22077748293975   -1.87011947964194   -0.91572990647116
H           0.81480377621222   -0.90489436329335   -2.07912539702911
O          -1.01727136349483   -1.94987892046816    1.83395335794525
H          -1.17072450630478   -1.02234706701848    2.10790797853072
H          -0.05766324116600   -2.03956652602240    1.71899163098630
N          -1.62319610308743   -1.53834558026649   -0.68824490057031
H          -2.44976459476620   -1.91058861993776   -1.14106473280111
H          -1.51311822076788   -1.88326976904579    0.31065406259484
H          -0.71500932858552   -1.77782680107348   -1.22550711330120
H          -1.65439556853051   -0.49458692894188   -0.61974068940577
