    26
        -50.46573249  Gyration_radius:  2.50291002062 Dipole_moment: 5.187
 S          -0.34763793691935   -1.27153379690864    0.57670612955587
O          -1.06109394968303   -0.16613685391036   -0.09560228728769
O           1.07395964225450   -1.21451606867997    0.27875497203022
O          -0.62467072042402   -1.26620585823620    2.00510147276900
O          -0.92488862623683   -2.59135563367113    0.01664841282224
H          -0.85644130997498   -2.54705909080272   -0.98193819852531
O           1.59207514868584   -1.07015782090833   -2.33215365240054
H           1.62180977004528   -1.20936418131116   -1.36450874024661
H           1.29861528607295   -0.14879696232118   -2.42757943244389
O           0.52261253634721    2.59463763891348    2.42235962814594
H           1.01623129833604    2.21447069023846    1.64343559589579
H           1.08244646052379    2.43053194390753    3.18311015329833
O           1.71236368707121    1.37604493785500    0.44103437129327
H           1.39190418696916    1.63404204685099   -0.43286280252240
H           1.58894680490145    0.40559651234603    0.47694605565073
O          -0.58339777512618   -2.48975458222614   -2.54314830968306
H           0.25794233236731   -1.95066527301870   -2.58442777262761
H          -0.35010449572385   -3.36932577326386   -2.84672944626434
O           0.17461116351937    1.25978404883159   -1.92742155357493
H          -0.46317286041279    1.53343667028898   -2.58781636647525
H          -0.32156087792953    0.70735947762165   -1.27735240979319
N          -1.59577544805773    1.06505081566220    2.10115185607053
H          -1.25722207060086    0.08458647631243    2.37296626827093
H          -1.62661248249194    0.90520755903582    1.06690870168062
H          -2.49312130555134    1.31841333910075    2.49831719108701
H          -0.82781846740075    1.76570969889041    2.31810016256753
