    26
        -50.46702765  Gyration_radius:  2.51539258614 Dipole_moment: 4.529
 S          -0.74104838438946    1.09643845577227    1.33281251760695
O          -0.32173718940176    1.05472428190842    2.71353136550842
O           0.38293232261562    1.36315953991983    0.43177020508190
O          -1.49383464975847   -0.06303402539839    0.90049462808795
O          -1.71778654470404    2.33067857226945    1.19209370444587
H          -1.30854980588747    2.98286264332803    1.75056249427120
O          -0.13165160104991   -2.36886980990991    0.88463572337891
H          -0.82391577785425   -1.68013162593322    0.87736397471276
H           0.35128197223223   -2.20539364570946    1.71347201324722
O          -0.34029323903738    1.50359973713681   -2.18689831496749
H          -1.25254397719314    1.15817743357905   -2.12556996091982
H          -0.06162234966772    1.61995726628591   -1.26141765253149
O           1.34743203715115   -0.98245664210163    2.68318987680640
H           0.75213519973093   -0.20073598312402    2.71358185410653
H           1.61161128359152   -1.13625951993900    3.59211749403077
O           1.23876819618927   -0.40593743618864   -3.00324969952293
H           0.58280322763121    0.32072430718168   -2.79653490470706
H           1.88398092056057   -0.01448074683756   -3.59308395510444
O          -2.62921070276264    0.24274133784589   -1.49592535880401
H          -2.78534220523973   -0.65726872341493   -1.78815232345497
H          -2.32546239702846    0.17830236422608   -0.56908861568559
N           1.58164331654221   -0.83838234624556   -0.40340173603193
H           1.19277814766001    0.07069289878307   -0.03569468054074
H           1.55284599590868   -0.79585876397145   -1.45572856453402
H           2.52063239291454   -0.97905723652360   -0.04664872385183
H           0.93415379122203   -1.59419235291599   -0.02423136063710
