    26
        -50.46794315  Gyration_radius:  2.46402303172 Dipole_moment: 2.604
 S          -0.23528221448584   -0.51584282128030   -1.75533013797117
O          -0.70495479741213   -1.59221754553634   -0.89271821216355
O          -1.27418660903296    0.44448508665968   -2.04811524788687
O           0.98716901702388    0.07923772882385   -1.23748180625246
O           0.17324730208134   -1.17588455198124   -3.13509407482629
H          -0.66758170261934   -1.31113514122348   -3.55978119189869
O          -2.51254082292967   -0.15983911047777    0.45232466161342
H          -2.90060310091461    0.39986477866379   -0.22530492070180
H          -1.90309221085911   -0.74369465212370   -0.03828552660702
O           3.40385594457637    0.34342283859194    0.15355617533240
H           4.24329317154100    0.30475372024946   -0.30599215234572
H           2.71650952156760    0.26735204551555   -0.52373252225688
O          -0.35271517482537    2.51621921885525   -0.62863778704439
H           0.58590987566696    2.40922596372251   -0.79935294751163
H          -0.78682150901440    1.85672940802993   -1.20346206488659
O          -0.34617526438030   -2.47227592595672    1.62088795482892
H          -1.22927963672562   -2.35365707413479    1.97954896945050
H          -0.44574948677076   -2.38459936415072    0.65376179103650
O          -0.96190454690877    1.58998734386665    1.82077421850612
H          -0.78480666208190    2.15387684026438    1.03774401044395
H          -1.67654867695443    0.99057084042094    1.52384183233060
N           0.95211603237007   -0.13221737410209    1.44913894509497
H           0.59877511818140   -1.07666030872675    1.72524093636354
H           0.96457721395059   -0.09959229264979    0.40487341576061
H           0.25275717785571    0.62030328674146    1.76547204400708
H           1.90403207111849    0.04158705193849    1.76612363758270
