    26
        -50.45198902  Gyration_radius:  2.60456338364 Dipole_moment: 2.749
 S          -0.46661109477654    0.53714974793801   -0.05220044083909
O           0.87454457250682    0.00310548459570    0.06567316900536
O          -1.42919756625882   -0.17010351694896    0.76193246367856
O          -0.46713649284763    2.00951516864458    0.25591547744113
O          -0.91023420395111    0.47936569225306   -1.51867779953671
O          -1.59412042542419    0.59421648933746    3.30393818581419
H          -2.50692851086039    0.84483011044876    3.45738690210449
H          -1.56563214000248    0.18423559533929    2.41439909712028
O           2.28976524725419    0.81353639731809    2.16969837428293
H           1.83993097707735    0.39244715069103    1.40850496893382
H           3.12655342973619    1.14576166576827    1.83990294503311
O           0.67938096495732   -2.38751353355858   -1.25666065337625
H           0.90409927907508   -1.66120619882990   -0.65320268705935
H           0.93773934472175   -2.05585783376400   -2.14314137971654
O          -1.85393891275799   -1.82499808990074   -1.37585732827367
H          -2.10611645136085   -1.71745085451886   -0.45004768273451
H          -1.38578120214896   -0.44656753084962   -1.59326719745605
H          -0.95144829489659   -2.25958301378478   -1.36317680488499
O           0.20849965644565    2.36191881224610    2.58636932035311
H           1.06690560025542    1.86535587633231    2.60304870748189
H          -0.16212111350267    2.24145891993900    1.31667508983500
H          -0.44753829752264    1.77800373149004    3.04846584025683
N           1.01227478182807   -0.88959300436415   -3.53361625666204
H           0.49118907017541   -0.13245737637121   -3.10335217000653
H           0.50662421365483   -1.18062182806493   -4.36078495680313
H           1.90929755862184   -0.52494805138454   -3.82792518398920
