    26
        -50.46797272  Gyration_radius:  2.47062779312 Dipole_moment: 3.034
 S           1.23628236050379    1.23562558055525    0.14752956683017
O           0.97716209478234    0.72279033482685   -1.18001398436583
O           0.25850653316578    2.20482503797106    0.59224067336174
O           1.40396001873199    0.16796317089913    1.13842983738849
O           2.62989514786814    1.97823187124407    0.06243954447579
H           2.68719849253506    2.46818330180325    0.87690169394475
O          -1.07069515475369   -0.96957160645884   -1.28635032800413
H          -0.32964472066159   -0.33883304463568   -1.40481537128629
H          -0.65158675950538   -1.85571902409815   -1.34761064915589
O           0.46642496739983   -3.14451953247115   -1.08129010578280
H           0.69509835419334   -3.75468348222004   -1.78341186639493
H           1.28049747533911   -2.61427914876170   -0.90427266636784
O          -2.15745434439024    1.67626432710426    1.78733794960740
H          -2.56408482468814    1.82082621742822    0.91199607812306
H          -1.29685008591085    2.11710871931959    1.69568202256701
O          -2.07877287551267    1.79649659969989   -0.90145987040770
H          -2.00850512789420    0.98039773117481   -1.40486352208019
H          -1.17572792972908    2.04594785072980   -0.65205842263268
O           2.49658511106007   -1.44563477512908   -0.70258706636456
H           2.19948268189322   -0.72499611074336   -1.27762246338743
H           2.34090241304631   -1.08584522008053    0.18473099688268
N          -1.08297490138182   -0.67906829766030    1.32683305043273
H          -0.06276895858369   -0.43416611492542    1.40536376337625
H          -1.24651441979159   -0.86887582600921    0.28844885279238
H          -1.31461685413198   -1.48885393950834    1.89221314440738
H          -1.63179868356466    0.19038537989185    1.61620915209763
