    26
        -50.47163714  Gyration_radius:  2.39760957294 Dipole_moment: 4.623
 S           0.69533657746306   -0.99759432875916   -1.31235641611813
O          -0.63729229961869   -0.44256881501912   -1.13785257539015
O           1.37913509586987   -0.54875669925838   -2.49537625098352
O           1.47423045421896   -0.87488145192796   -0.08731066401168
O           0.47086997409798   -2.57038148376235   -1.53636670682059
H           0.84787986019556   -2.69920019389526   -2.40066262341079
O          -0.12934891268790    2.16369215445055   -0.62177049872420
H          -0.34390471130596    1.26544742747380   -0.93281981947256
H           0.73255460572221    2.35382893745528   -1.03633430537114
O           0.84833163623012    1.12896571884203    1.61999371577820
H           0.51518300005319    1.73015870474247    0.91183870741727
H           1.26968523567561    0.40153124059000    1.12363647099857
O           2.37684007412136    1.73584901394881   -1.53229696988331
H           2.95156556693640    1.41455958697803   -0.83449402628874
H           2.09798878127174    0.94443320058738   -2.03024710223332
O          -0.32031230966912   -2.36576847238087    1.13385680755314
H           0.45278060344320   -1.89038223378211    0.76301197114065
H          -0.70158157842696   -2.82186155421523    0.38033731272092
O          -2.71232304904411    0.79921015622876    0.05720365030729
H          -2.17392354645995    0.23171576031379   -0.52297195269547
H          -2.40378838154218    1.69329372113901   -0.12587659441742
N          -1.36226988924985   -0.13110884432655    2.15451631203008
H          -2.03328511043663    0.26107293788953    1.44141211014820
H          -1.09313064423493   -1.09914935112775    1.84672922235082
H          -0.45261786648040    0.44642307562164    2.08295947943484
H          -1.74860317613086   -0.12852820782498    3.09124074589878
