    26
        -50.46811871  Gyration_radius:  2.51250462975 Dipole_moment: 3.974
 S          -1.41559892834490   -1.12923601818232   -0.88055279705975
O          -2.44322807761663   -1.13738699455032    0.14284770231385
O          -1.22569992756177    0.19380210741100   -1.45199712207092
O          -0.17332733044636   -1.73648072581574   -0.43030072873713
O          -1.92766111454150   -2.05846030094918   -2.05582313886706
H          -2.75272484533910   -1.66133643327285   -2.31695650538997
O           1.06068664792633   -0.56995682628215   -2.55102398844896
H           0.99216538534763   -1.36823376123577   -2.01368408321753
H           0.23189629157555   -0.09938592101394   -2.34905787952774
O           1.80717013509827    1.53499544185288    1.04240874183280
H           0.94067471372820    1.93619579409027    0.79594136888798
H           2.27824305752016    1.36638573162188    0.19370922122033
O           2.87289578948967    0.96552685900315   -1.33174118012913
H           3.04956195339556    1.69482279088687   -1.92744301270406
H           2.25248140474471    0.36666817259068   -1.81190031113622
O          -1.79184482816195    0.12369244158722    2.30611529127941
H          -2.09657613337379   -0.36004087912715    1.49343253542528
H          -2.52026492562826    0.08338684121929    2.92758299418550
O          -0.73622705574427    2.03419175841245    0.45594829745655
H          -0.94156287705926    1.47709515994487   -0.31784164281946
H          -1.21620690030013    1.63824830494913    1.19438251121157
N           0.76321957485179   -0.67963885655129    1.79914818135770
H          -0.11379945243672   -0.39906795642683    2.27034887829390
H           0.47566648352452   -1.17196661610522    0.91395864708826
H           1.30519142687919    0.24250902162894    1.51689825870236
H           1.32486952265863   -1.28632913576535    2.38559976076712
