    26
        -50.46255401  Gyration_radius:  2.44741305523 Dipole_moment: 4.172
 S          -0.35506293777432    0.65625462077164   -1.91775972563824
O           0.76165833116205    0.00736892980674   -2.56923183123881
O          -1.21254527097981   -0.27641621353787   -1.20229797029291
O           0.06894560472705    1.75519927551345   -1.06044425982739
O          -1.25622635004663    1.28407778753923   -3.05582643293015
H          -0.63174250805169    1.79910949118359   -3.55687598208360
O          -0.37168434166251   -1.45821498370592    2.11256287421069
H          -0.38714783660470   -1.95628567996341    1.26645747540945
H          -0.06631435525127   -2.06244475767706    2.79031155708618
O          -1.94184218957415    0.77602470057403    1.21378038249677
H          -1.81058120675230    0.50112525948734    0.29074105554139
H          -1.75162711888537   -0.00221602074367    1.74784568691952
O           2.20177976756188   -1.26673114640018   -0.75941419588394
H           1.59145797202610   -2.00513234210008   -0.62083209745908
H           1.83682631305590   -0.80225509939080   -1.54593649228366
O          -0.08253099793480    2.78861728511947    1.66623657566116
H          -0.03787984644467    3.10606461951747    0.76040330138099
H          -0.86175502562889    2.20580474821617    1.67422013336512
O          -0.26473703201819   -2.53190289503824   -0.34934059599303
H          -0.79904324518057   -3.24109617280455   -0.71022530935382
H          -0.62660267791992   -1.69570949181929   -0.74512012322573
N           1.21585984560667    0.48229833303663    0.93493200845025
H           1.81453881089228   -0.19390935308260    0.37585070503014
H           0.69202879593797    1.07002164659243    0.22257392755033
H           0.53975573375678   -0.06026691133942    1.50351106817035
H           1.73447176598141    1.12061436024544    1.53387823493787
