    26
        -50.46413986  Gyration_radius:  2.71021683353 Dipole_moment: 2.756
 S          -2.43021548172011    0.11842783015337    0.15323050986905
O          -2.09226516110456    1.16448675254573    1.10444304751319
O          -1.41805641169515    0.04650616321436   -0.91039923578253
O          -2.67859725934592   -1.16853924750487    0.74729432657646
O          -3.77125669137299    0.58072065201566   -0.54754220069677
H          -3.59810130973316    1.50053590505646   -0.72217835341768
O           0.38451037189564    1.30867814509031    1.81847804066022
H          -0.58650017171977    1.28775072926936    1.60048892704566
H           0.43909689342293    1.51737659847767    2.75186556659340
O           2.52110344583200    1.24244066079122   -2.11108865287375
H           1.66306646161909    1.57879466874656   -1.75342935091160
H           3.16159142833402    1.93839864852349   -1.95988678650792
O          -0.82870253903986   -2.77814364376832    1.70114976568784
H          -1.58856120036810   -2.20105537928854    1.45472603353817
H          -1.10310210177614   -3.67157871627576    1.48931198086501
O           2.82358933178514   -1.22260075024069   -1.19633997345080
H           2.79943361116555   -0.29799698404940   -1.54483808486034
H           2.75932661382026   -1.79126954948641   -1.96502773006326
O           0.29915909742416    2.10962304684816   -0.93100605893175
H           0.46752698501764    2.14194288480300    0.01905057521675
H          -0.39112213327001    1.42758295949342   -1.04422602275254
N           0.65374489819209   -0.98141905237019    0.36916931912446
H           0.30752293923180   -1.80887932837410    0.89715697067921
H           0.80601941098381   -0.19634658786843    1.02852255555211
H           1.52427639967351   -1.17450901903236   -0.18216376962633
H          -0.12348741725104   -0.67092738677610   -0.26676135905490
