    26
        -50.46802087  Gyration_radius:  2.47941590375 Dipole_moment: 1.706
 S           0.34051583219781    0.37048445192499    1.69341037118635
O           1.54064578299154    0.13303935858700    0.90027448350070
O          -0.25376571468692    1.65462408675026    1.38745701966073
O          -0.61597833274985   -0.72066395416791    1.60878516012210
O           0.80508228657240    0.41036926727195    3.20503012505409
H           1.38980591416061    1.16062767055226    3.25440111034948
O           1.32983636811818   -2.51944518923182    1.03423848512856
H           1.70451026240735   -1.62134347087727    0.99922769324714
H           0.47054393831681   -2.37511174436018    1.45095513969260
O          -2.33054645397956    2.33530334710008   -0.33531028700161
H          -1.96457015056358    2.33075568789221    0.56129090418603
H          -1.60564070913298    2.72434373701348   -0.86501738841279
O           0.90601557680804   -2.78360552709422   -1.58831345347752
H           1.61169447949099   -3.31093872718094   -1.96460111240289
H           1.04248735086681   -2.80525756466314   -0.60987753368013
O           0.77637262158011   -0.11923339341815   -1.63246865100874
H           0.90475838856192   -1.07729664693127   -1.81188059376599
H           1.18653726545583    0.02380181627230   -0.75243925319429
O           0.21852516254415    2.67720815529070   -1.12400135291345
H           0.60911737006695    1.95945104770750   -1.63254091243481
H           0.28062312576447    2.40847344919391   -0.19171964129077
N          -1.69737611824564   -0.18606238059086   -0.73372481508795
H          -1.43654336520590   -0.49638149438451    0.23550553867827
H          -2.34433638713274   -0.83336349190064   -1.17157626671255
H          -2.09699566145610    0.80158719628221   -0.65505369835899
H          -0.77131883285077   -0.14136567706847   -1.26205105105054
