    26
        -50.46061517  Gyration_radius:  2.5439247387 Dipole_moment: 5.964
 S           0.35443169525087   -0.32618674353099    0.13603021784370
O           0.17937328379691   -0.35768333438034   -1.40458596941227
O          -0.45614860647319   -1.43183933091616    0.63134315284315
O           1.75290748526105   -0.42624996728196    0.46604452315705
O          -0.22169059668042    0.95780846969725    0.59599127617328
O          -2.44859751096918   -1.12214391947613   -1.03617665974553
H          -2.02822489112929   -0.87202505908405   -1.86406124129822
H          -1.70629084564981   -1.43766751755185   -0.46841666127305
O           1.99455087695469    2.37788138472012    0.10759627399897
H           1.13308508875116    2.00900095936140    0.37349326189900
H           2.64637039096298    1.80175634902629    0.51758280844819
O           3.67024953054447   -0.58908743069794   -1.37180909900616
H           3.05244514189472   -0.58189239012333   -0.61125199106766
H           3.74065487426058   -1.50289173945501   -1.65068213848610
O           1.91246406269287    1.22968945853663   -2.29568285094513
H           1.97990405882966    1.86462715431215   -1.54519847264971
H           2.70221027688759    0.65858078378394   -2.20906186735504
H           0.85655664383148    0.30340467502364   -1.82068196661983
O          -2.68606831357634    0.75038819192795    0.67587746363484
H          -2.79295703732744    0.09541385107508   -0.09713268929799
H          -2.70984223809144    0.09567656329140    1.55384046970910
H          -1.65970098073081    0.97510745663622    0.63529446345765
N          -2.41928748227111   -0.92095283153199    2.53464352217852
H          -1.60834673293876   -1.31813250967369    2.04617224850676
H          -3.11430880285500   -1.64551388266594    2.65844468049879
H          -2.12373937123321   -0.58706862104660    3.44238723480007
