    26
        -50.46740331  Gyration_radius:  2.5690937561 Dipole_moment: 1.595
 S          -0.08408007249427   -1.24133035603873   -1.95272789954956
O          -1.20933690580775   -0.33361121504478   -1.78161927633503
O           1.08228948358230   -0.60773716247145   -2.52451970845178
O           0.22147586706371   -1.95385900316932   -0.71617037629593
O          -0.56379302315599   -2.32875023958213   -2.99924779318378
H           0.26192496439342   -2.64902418507804   -3.34725727063703
O           1.92692461697248    1.46463398816848   -1.09171935295591
H           1.76264309725699    0.76530232317112   -1.75902532591781
H           1.10554084223491    1.98034021817013   -1.06334436599742
O           0.88481448858366    0.14181200210114    3.64889402093317
H           0.76618123551908    0.15180659876490    4.59909773839519
H           0.09285577057684    0.54384930945447    3.26760900335854
O          -0.78449483971072    2.08234960521187   -0.85655894434089
H          -0.95794976996908    1.19340659998981   -1.24993870058228
H          -1.33477822149522    2.69696893036921   -1.34414845884767
O          -2.15652871718727   -1.17893472650680    0.55517827738266
H          -2.00809012682865   -0.87328209827923   -0.36085247428484
H          -1.55617763621395   -1.92551845383012    0.64509051025193
O          -1.03789383573723    0.96377392674418    1.66490011831417
H          -1.59838674028595    0.19779758285123    1.39271013678109
H          -1.08538187641847    1.58886734504850    0.92259912610204
N           1.28000886388591   -0.14652702695559    0.88202315870454
H           1.74190435937978    0.53067443084584    0.20947215172881
H           0.97004006168043   -0.98092124705776    0.32377676856670
H           1.86862902376319   -0.39836422569879    1.67244234617582
H           0.41165907043951    0.31627707882870    1.26333655066929
