    26
        -50.46372125  Gyration_radius:  2.71494843369 Dipole_moment: 3.409
 S           1.34330488755656    1.53208952237005    1.33604975985720
O          -0.06439021332804    1.39511222878700    0.93773811392972
O           1.82495923843167    0.29410572949716    1.92894124325611
O           2.16548441902380    2.02874055501054    0.26467787434360
O           1.36933118443195    2.61160695859706    2.49188859904658
H           0.95946044793553    2.14278951979699    3.21198954673771
O          -3.28022363833202   -1.32112105229952    0.12118739621352
H          -2.56748715969274   -1.10594534283529    0.77156679747624
H          -3.60599747673240   -2.18887305476180    0.36280004692149
O           1.21091433482856   -1.81461730835363    0.57775654347449
H           1.49706236310335   -1.03038935889478    1.12139642236400
H           1.89861454206891   -2.47296727274379    0.68371404205705
O          -1.22492145547741   -0.88309775799671    1.75175258142030
H          -0.88821250554642    0.01680901101962    1.57591808729854
H          -0.50072474266522   -1.47185803605644    1.50256978061348
O          -2.28392576142846   -0.75193275623454   -2.26278301346883
H          -2.71041159041570   -1.02090405780022   -1.41258196806076
H          -2.81103340515607   -0.02641609168617   -2.60108977806983
O           2.04622334492807    1.43122864106515   -2.29943017891235
H           2.94684670811616    1.27464778639597   -2.58665444699654
H           2.11522827506508    1.79210764690651   -1.38627438581259
N           0.10730625264838   -0.09588221097379   -1.23899999413897
H           0.79724987723299    0.36204926527817   -1.86809836801611
H          -0.78574238845516   -0.34599871911394   -1.73184424983406
H           0.52493658424176   -0.93075616785937   -0.79631373608141
H          -0.08385214236892    0.57947234288635   -0.45587673561160
