    26
        -50.46550722  Gyration_radius:  2.49858262668 Dipole_moment: 3.960
 S          -1.05212105950591   -0.80376644492555   -1.41360510919909
O          -0.26532899056749    0.07082774265281   -2.26532144773698
O          -0.18416724077125   -1.63312326261311   -0.57277048431129
O          -2.06454657746209   -0.12907461552360   -0.64271267795367
O          -1.79984707248632   -1.79823643183218   -2.38612536149455
H          -1.10560878197060   -2.04169486710548   -2.98952447270793
O           0.86298143185730    1.73617642081131   -0.53507869063693
H           0.50747895482030    1.11735993524118   -1.20981851096936
H           0.60803946279801    2.60478899648868   -0.86365555209819
O           2.38926368470605   -1.02247908652268    2.43001200537165
H           2.82239770023574   -0.25329508412094    2.80334738844649
H           2.52830101078829   -0.97000831090305    1.44859556610989
O          -1.03002011560913    1.28816842872917    1.35307544767227
H          -0.27229879487329    1.61657918433364    0.82617735450980
H          -1.63096608051356    0.91453892464030    0.67791389278742
O          -1.60799579736004    2.44682996093674   -1.91569322212198
H          -2.37075812729527    2.13138604131536   -1.42575198594372
H          -1.19026917946418    1.64748498153417   -2.26729775759299
O           2.33338489094850   -0.66090461860444   -0.17938553708480
H           2.16159165370152    0.27875177930655   -0.32268656155995
H           1.51483040785696   -1.11450012844959   -0.44965320703522
N          -0.23827754260064   -1.10252691014560    2.00943407080211
H          -0.57743187717970   -0.08719156745978    1.93127894185195
H          -0.26920271940277   -1.45998098396275    1.01757309646123
H           0.76534270794748   -1.11959783565706    2.32858245476892
H          -0.83477195861094   -1.65651223818233    2.61309032967576
