    26
        -50.46372135  Gyration_radius:  2.71511119254 Dipole_moment: 3.415
 S           0.28262913277486   -2.41568608113066   -0.15477439592827
O           0.00092030305483   -2.16777168892857   -1.56026083184161
O           1.00728709259394   -1.27919584173295    0.43010511879362
O          -0.87368851739272   -2.78006576139354    0.62024726628398
O           1.28273986256344   -3.64051513833798   -0.11672329241332
H           1.92240123639540   -3.39642178625875   -0.77824693117604
O          -0.00112686202777    2.89473846014523    1.58708292150497
H           0.34671036160668    2.89772986021100    2.48020628097034
H           0.78477563906434    2.96400282542020    0.99155957751993
O           1.78726693788807    0.56942727592799   -1.35182508384829
H           1.66109387119734   -0.14854711490902   -0.70165693209673
H           0.95452528398542    0.61129756309744   -1.83966048641033
O          -2.59437705282868   -1.19534790856581    1.83387323790564
H          -3.46828737668666   -1.52533037224016    1.62044739486949
H          -1.96333590201815   -1.87283286729337    1.49962218450673
O          -0.96181606286409    0.17714970140974   -2.03314013732279
H          -1.55614710472052    0.13305948956944   -2.78308849862882
H          -0.61900712330831   -0.74892371584918   -1.90107277703182
O           2.10526008707507    2.84585047845589   -0.01309041751714
H           2.26710725039613    3.50688682431617   -0.68713938777043
H           2.06670843543166    1.97805789103758   -0.48499551751791
N          -0.89877289423872    0.53672109086004    0.67603736340857
H          -0.63595586055194    1.46894586529271    1.08214468426112
H          -1.12674015026927    0.62793391420841   -0.32751393553433
H          -0.08456713429187   -0.12690011717577    0.72680713144295
H          -1.68560346284462    0.08573714386614    1.18505546357514
