    26
        -50.46935217  Gyration_radius:  2.50224346218 Dipole_moment: 3.606
 S           1.47732327551352    0.56390009409505   -0.02930738872578
O           0.40886411034767    1.45455698533416   -0.49037099275003
O           1.45233228095112    0.39730458741650    1.40659597675746
O           1.42193733824979   -0.71510258041078   -0.72778811976629
O           2.83653010209622    1.21679620853676   -0.43956131330166
H           2.75251323031132    2.09814112683974   -0.03291949206310
O          -0.28478287391722   -1.30818062204275   -2.64483391918058
H           0.41075881298997   -1.06455847239980   -1.98975990501304
H           0.05368391597917   -1.03844101081828   -3.49942477330925
O          -0.74240116745312    0.25277487711961    2.75350140459754
H          -0.44908769320414   -0.11633127446370    3.58856174230710
H           0.09183772385224    0.40993048862697    2.23601238709603
O          -1.87888960874860    0.35529821563873   -1.21601491539064
H          -1.10692424171567    0.90455913090538   -0.95274008591925
H          -1.50952277831713   -0.25795380800072   -1.88165555752676
O          -0.05828003747848   -2.78486032196624   -0.00339658856244
H           0.63004160380187   -2.09005840462286   -0.09976079338797
H          -0.26793948438400   -3.03403002768045   -0.90911764440466
O           1.77502421139751    3.47043504915670    0.46036399834901
H           1.70392075843227    4.23384681331800   -0.11726532024359
H           1.05228353687114    2.86107548446490    0.20587386219588
N          -1.97919763725640   -1.17653822474680    0.89084731481520
H          -1.57416638354574   -0.62233130457048    1.69328175932844
H          -1.27892886487977   -1.91910524555531    0.61826726661262
H          -2.87748758211673   -1.57655042195181    1.13653978887993
H          -2.05944255777524   -0.51457734222071    0.04407129860456
