    26
        -50.46641727  Gyration_radius:  2.48280677783 Dipole_moment: 2.478
 S           0.83045177385875   -1.71166857001388   -0.43846432789064
O           1.89837831782160   -0.86227867461790    0.05404957556838
O          -0.11096615210301   -2.12901049034995    0.58497546530342
O           0.14957604302929   -1.12013949748814   -1.58096377677387
O           1.53682550183516   -3.03072001276460   -0.96234854759696
H           0.80679174438474   -3.59413489109778   -1.20077145066818
O          -2.79159356585188    1.20490238471733   -1.53575698741667
H          -2.93598606417610    0.67489135199095   -2.32121715916851
H          -2.77825277833477    0.56804110207993   -0.78709503250117
O          -0.49821889926030    1.30521133552852    1.89375628253879
H           0.07702480952173    0.55587406547920    2.21932282553356
H          -0.29349898132934    2.05976177401314    2.44733746055286
O           2.43746487772518    1.56108403685661   -1.00223044161964
H           3.26462408716225    1.52751114835491   -1.48347102370805
H           2.32311353570902    0.67531154805668   -0.60189911070207
O          -2.27292683568569   -0.47295424266406    0.52045864897509
H          -1.58814360410053   -1.16408573797207    0.46799325157177
H          -1.98525653148885    0.11770251070171    1.22652091173810
O           1.01069121021803   -0.72333565067175    2.54641095809808
H           0.43768055026717   -1.44190068253546    2.23360698878774
H           1.66135170528538   -0.66038090415465    1.82564889887455
N          -0.23375002893853    1.36297421861729   -0.82604411514326
H          -1.14615223162915    1.65633400049870   -1.23415426404214
H          -0.08502811392766    0.36112066899975   -1.13839643426369
H           0.59292618390517    1.89367376198339   -1.12170916512369
H          -0.30712654391334    1.38621544644558    0.21444054908272
