    26
        -50.47027131  Gyration_radius:  2.49073678785 Dipole_moment: 3.343
 S           0.01266430449983    1.90304140878351   -0.76324900804896
O          -0.87479868759064    1.31632534207686   -1.75975113277975
O          -0.56877506714528    1.83867898187341    0.56936991441691
O           1.35890632371334    1.37691790697425   -0.83265715204093
O           0.12415049361424    3.44222003641734   -1.11982482386443
H          -0.78124672425501    3.72892356000031   -1.06138790386638
O           1.75526173948117    1.50865053042247    1.80687212577907
H           0.82377566882800    1.76548895542865    1.68352691524354
H           2.09922397257589    1.56265579976096    0.90233588429335
O          -1.29970919973582   -0.56432119628412    1.54977479324657
H          -1.15415784885539    0.33932777514272    1.21091781919325
H          -0.41929416612566   -0.88828145230977    1.80095327552744
O          -2.49157685278721   -2.08299814715102   -0.21001536377750
H          -3.37299369924499   -1.71978356301405   -0.30694168795766
H          -2.07616732944121   -1.58043697543154    0.54245053849525
O           1.71278416114264   -1.26950683319578   -0.71562343873339
H           1.77447221918196   -0.29978634120525   -0.82975292240504
H           1.63956273849231   -1.40147416357382    0.24709916238755
O           1.38488349913150   -1.08972369238191    1.99787614265676
H           1.58466032369253   -0.11366399545787    2.00963151835866
H           1.83643538268672   -1.46987594382706    2.75201307855139
N          -0.62031348000500   -1.27955529998075   -1.91478408681816
H          -1.38688735730095   -1.69670100256832   -1.32126715188938
H           0.32667354766995   -1.43925137161664   -1.44959011309499
H          -0.63040181849085   -1.65982512300209   -2.85453984192590
H          -0.75713213374940   -0.22704519588198   -1.93343652095201
