    26
        -50.47033062  Gyration_radius:  2.49971237761 Dipole_moment: 2.154
 S          -1.08096098814161    0.81316864906683    1.48674805572676
O          -0.43911711692447    2.08291595966260    1.73626548577085
O          -1.68167316226722    0.76587702686077    0.14970746697516
O          -0.23615890297103   -0.33540990707361    1.74321244284857
O          -2.28367315022589    0.70395072630221    2.51346279099119
H          -2.58718112552133    1.60240655931899    2.59690405835258
O          -2.03513956906228   -1.86443417367698    0.44145181502982
H          -1.43769005298051   -1.77428067024805    1.19554912804777
H          -2.16436693710905   -0.94272833032049    0.16209007269801
O          -0.40226921552581   -2.85039601219578   -1.42822118097092
H          -0.94851013963788   -3.27850175509178   -2.08783433143955
H          -1.01603547712865   -2.53999826861623   -0.72063886774767
O           2.18363929922640   -0.35231285901126    0.74230059664595
H           2.73657894931230   -0.87253366137328    1.32735686525838
H           1.27838068010341   -0.37348716583224    1.13569340582716
O           1.44827331195623   -0.96274004073128   -1.84773382949621
H           1.88433673763715   -0.88422552313786   -0.98100691847180
H           0.81383795841757   -1.70610385324656   -1.75462638948188
O           1.73611377058334    2.34341874471376    0.23187672267843
H           2.19663514434586    1.52015396449649    0.46062309874298
H           1.00566347998591    2.41497471210269    0.88223700036819
N           0.19382735489718    1.31212098051013   -1.62777463011794
H          -0.64143567642159    1.11765265654426   -1.02049087052266
H           0.86985893082007    1.86637889277215   -1.01903222211607
H           0.67385254250763    0.37607227499193   -1.85187258299517
H          -0.06678659586606    1.81806107327154   -2.46624717261343
