    26
        -50.46405555  Gyration_radius:  2.49799482374 Dipole_moment: 5.378
 S          -1.27429200931670   -0.05968481768253   -1.22391585651768
O          -1.56747619136100    0.31671808331775    0.17714145052412
O           0.16527517045371   -0.04280506942813   -1.44098213156523
O          -1.87317904667863   -1.31866109766920   -1.57766605147597
O          -1.91335597408423    1.05385157109108   -2.11901666951615
H          -1.69358064278370    1.89605020654308   -1.68337595798158
O           2.25124229536065    0.18098203857163    0.24685225416923
H           1.51454181716010   -0.04160390998241   -0.35361925502510
H           2.39162121714569    1.12230300689090    0.07127518351439
O           1.67189586926376   -0.73425729842701    2.61958515716908
H           1.94578061562914   -0.28031384791437    1.77685400087674
H           2.40709272695764   -1.30011440976071    2.86074202130384
O           1.34481890576221    2.45939703396270   -1.09822389304299
H           0.59071022130483    2.94209689631943   -0.74396172613594
H           0.97320473129105    1.64685365384294   -1.47418512267494
O           0.14033786462182   -2.82666157959325   -0.84744726289109
H           0.86355522962268   -2.33243869522604   -1.24563198103124
H          -0.66926102267450   -2.44725027532498   -1.25954491346636
O          -1.33321430719179    2.87194521737928   -0.22010991425306
H          -1.38883488614151    1.96769931467917    0.16393827746328
H          -2.04226626421119    3.38496424082615    0.17222934040119
N          -0.50585689942307   -1.70654991271714    1.46266862930368
H           0.32621315912160   -1.37394005568866    2.02681138247939
H          -0.99258962334258   -0.86190392687209    1.04731057355000
H          -0.17790533927541   -2.27742751071317    0.62958298832285
H          -1.15447764720571   -2.23924880641305    2.03268948649914
