    26
        -50.46320048  Gyration_radius:  2.59284054987 Dipole_moment: 2.613
 S           1.03338207981141   -1.18229901801902    1.40212602216459
O           1.70019693688831   -0.40989777855977    0.36102752513676
O           0.85817476315864   -0.41623967267790    2.61529272636603
O          -0.18831009556221   -1.80107364937784    0.91579092603254
O           2.00217724270472   -2.39417141556065    1.74551881289069
H           2.77511424507566   -1.95844407437480    2.09090567066092
O           0.59639807520806    2.22774752085823    2.77935365875795
H          -0.03544861995915    2.38317411447380    3.48309016639987
H           0.77388418358821    1.26105043975914    2.79486118090776
O          -1.52947655324183   -0.30760087627145   -2.42962320650682
H          -0.90429373329618   -1.03915381492505   -2.19745439958504
H          -2.03080685414516   -0.60299789802343   -3.19063832632400
O           0.08837257821785    1.92549185302663   -2.46698316237651
H           0.93229894703171    1.54583729728975   -2.72039692480961
H          -0.55923352971460    1.19733719783368   -2.52464462178502
O          -2.05783666928370    0.02822993276131    0.29693104972138
H          -1.53543683346526   -0.72302215310244    0.64006082935366
H          -2.12979134464705   -0.11555451066801   -0.66032771522774
O           0.04093045774997   -2.28570451610642   -1.64761079741097
H           0.06721583996270   -2.09435476239858   -0.68080383358545
H          -0.19793284792907   -3.21161622366151   -1.71949432626008
N           0.05852036813773    1.63073331755419    0.21904518635143
H           0.79138121317245    0.87019300953535    0.22160173212878
H          -0.87215167236400    1.13956855075040    0.31519139869014
H           0.23069777882240    2.21855830881364    1.05314367529638
H           0.09197403404674    2.11420880111372   -0.69596321693848
