    26
        -50.47165534  Gyration_radius:  2.51563387675 Dipole_moment: 0.603
 S          -1.09100181320003   -1.69570860793572   -0.12741267777854
O          -2.23812787649095   -1.22057205041363   -0.87178143699034
O           0.16383011264115   -1.30315171122771   -0.76745769507838
O          -1.10871301835392   -1.34780511635631    1.27781033709234
O          -1.14059800164109   -3.27631888304238   -0.18461507185266
H          -1.29877779412882   -3.43704178274181   -1.10872714032710
O          -1.98497964344422    1.35619239343410   -1.08198927257455
H          -2.81652155703892    1.72201950481797   -1.38870993661006
H          -2.11845226266202    0.37478990361158   -1.03915844297098
O           2.53489297885064    2.00224957569339   -1.08137634965458
H           1.84605927919057    1.62738213409382   -1.68312274047764
H           2.46461722584862    2.95483079753113   -1.15252926056502
O          -0.96330661825512    1.34089509997579    1.45732742983767
H          -1.36906176678374    1.57216531629316    0.60331846000845
H          -1.21424723726756    0.41205323421694    1.60993013526382
O           1.24204715332180   -1.59005784145004    2.56554949091646
H           1.17641101340754   -2.20942296918599    3.29274339112174
H           0.36225989963642   -1.57766844917013    2.13870839697117
O           0.45365430686435    0.91562803011880   -2.34353738069288
H           0.43613160594230    0.01051429256421   -1.99136473992565
H          -0.38217276678119    1.30207354030564   -2.03916825658168
N           1.44028635806162    0.42806295108314    0.79362654104064
H           0.59777431714299    0.95576889840053    1.15041263270838
H           1.88855455842852   -0.06127192459837    1.57185221989688
H           1.05202886362464   -0.30905859282028    0.15394963246844
H           2.06741268307339    1.05345227677108    0.24572174475408
