    26
        -50.46265814  Gyration_radius:  2.47072204936 Dipole_moment: 3.061
 S          -1.14153740054235   -0.40584166789827   -1.49528382368103
O          -1.75357429619315    0.84176361927597   -1.88619185112175
O           0.30449440944169   -0.40049827383298   -1.69287848924398
O          -1.48442798101210   -0.85947802230296   -0.15979512673370
O          -1.72152925836812   -1.50811011333458   -2.47613941035476
H          -1.74721322803410   -1.03589092176042   -3.30111366224960
O           2.03179942362934    1.56743582140846   -0.75777930469925
H           1.54993165992949    0.98833247249695   -1.36095472156237
H           1.38697187511540    2.23550789179165   -0.50018006484917
O           1.11046011866434    0.35413642857786    2.55513003551434
H           0.87417876845011   -0.10886258444030    3.35998729536726
H           0.26860578515863    0.78045287859046    2.22889074597808
O          -0.57513260731718    2.79280698229344   -0.57874401295042
H          -1.00106049183766    2.10199828155627   -1.13657353325325
H          -1.03076976305108    3.61324593876965   -0.77457991833494
O          -0.23085074684730   -3.02988976290108    0.66708711935578
H          -0.78619490853655   -3.48806542181546    1.29925557295672
H          -0.77778842306668   -2.29541778855723    0.30627507880829
O          -1.14230499988736    1.20261448243105    1.56231724156227
H          -0.93741983105245    1.91859494759119    0.93399054585362
H          -1.40365855129932    0.44603679452603    1.00745560989297
N           1.66381486401716   -1.15110210217329    0.44650338133291
H           1.52068978921774   -0.48625776257348    1.26315299568931
H           1.20527507795243   -2.05663031019399    0.65883487078338
H           1.16454063992399   -0.77475319302113   -0.40651538719278
H           2.65270006554496   -1.24212861449438    0.23784881313431
