    26
        -50.46401967  Gyration_radius:  2.52189588461 Dipole_moment: 1.294
 S          -0.79273646376378   -0.44548145899181   -1.70723125688859
O          -1.55675218064322    0.73011780820691   -2.04505784293638
O           0.64747828490840   -0.24981342886055   -1.74298323516333
O          -1.20259155420822   -1.07304616354411   -0.45549858749268
O          -1.12391288509099   -1.50543182684683   -2.84822580813148
H          -1.87719466015474   -1.09953213401129   -3.26439800353163
O           2.47373674813560    0.02886631768261    0.22842135216357
H           2.59517939444550    0.97630878661890    0.10905909134129
H           1.97824626435712   -0.25403454072685   -0.56329167916026
O          -0.87464887911365    1.34769930940144    2.89823229502413
H          -0.87755163377778    1.70013695124032    1.98313868886870
H          -1.79531414147486    1.26582950215021    3.15184046773766
O           1.38857397740435    2.27502527742119   -1.36170336411064
H           1.13479011104899    2.85477708815749   -2.08118165573052
H           1.13498623211289    1.36923420704985   -1.64030013099014
O          -0.25505267968799   -3.28661128359474    0.87587334279365
H          -0.72115749972619   -2.64730909412202    0.31055000022314
H          -0.00426401300898   -4.01518387717720    0.30717828994066
O          -0.77073287775015    1.83293999118975    0.26683596342331
H           0.05117859104317    2.19299334167635   -0.10773857405421
H          -1.25138227267370    1.47229772908202   -0.49614277538745
N           0.35083654455677   -0.69582962463379    1.66909358904411
H          -0.02709437453789   -0.01194939913007    2.36036569599589
H           0.39939893735967   -1.65429838459015    2.01787519304210
H          -0.30600342198485   -0.71859089975503    0.84644608411493
H           1.28198444227324   -0.38911421386525    1.28884284984611
