    26
        -50.46775137  Gyration_radius:  2.50243981345 Dipole_moment: 2.317
 S           0.53412364059102    1.03203812935755    1.19355518300995
O           1.89813045350730    1.40940562516586    1.47689015207004
O           0.07123163944850    1.56791758840744   -0.08620400250166
O           0.27219081996319   -0.38676189541712    1.30679600232803
O          -0.36140925561313    1.73140763203603    2.30945249093702
H           0.03838833956674    2.59249291673147    2.37402080768639
O          -2.46490135242094    0.67355347747106   -0.44970707676132
H          -2.62929314066424    0.30529857035699    0.44019183910141
H          -1.59906271905118    1.11085516098116   -0.38635334355425
O          -2.29661069126743   -0.37585969308033    2.05206024563295
H          -2.32250552006179    0.30364136859442    2.72850478646564
H          -1.35007237325122   -0.51420790672452    1.86030011808414
O           0.32571097931656   -2.10966184949746   -0.79665353138340
H           0.28046536048401   -1.71164587428877    0.09066809123316
H          -0.59390582868049   -2.05967625536740   -1.15794683601031
O          -2.09354510781354   -1.60450071735509   -1.73794759503778
H          -2.26743790448334   -0.70941847862575   -1.34751566340062
H          -2.82399461799125   -2.15637539291632   -1.45528295583080
O           3.55341902476613    0.35193005207403   -0.27291600894814
H           3.03028522916924    0.83180639470118    0.41125731951991
H           3.92866021077820   -0.40918545748773    0.17431278052795
N           1.38148724236668    0.03086145760280   -1.78308746831738
H           0.80180524663174    0.73711611288527   -1.26562856144254
H           1.35417455804471    0.18589328109496   -2.78496350901047
H           2.35063848886909    0.11493272713235   -1.39110478191329
H           0.98202725779050   -0.94185696383081   -1.50269849248661
