    26
        -50.47095895  Gyration_radius:  2.42160237441 Dipole_moment: 3.078
 S          -0.32981421645997   -1.07334917101525   -1.49006723691543
O           0.89737314613545   -0.80424949022870   -2.20168174283064
O          -0.13626840011507   -2.02605437799265   -0.39721486757104
O          -1.01570396470204    0.12428169740392   -1.04552229538948
O          -1.31252793407862   -1.77423106307306   -2.51229386955842
H          -0.76419960190935   -2.45691488375658   -2.88411351728876
O           2.39236645335587    0.66703338722716   -0.56241009090822
H           1.90270123359976    1.49215737235898   -0.73214037225151
H           2.05064652275533    0.06082677318321   -1.25113473284730
O          -0.51830233773976    0.25122882139194    2.77479276259120
H          -1.21261359582400   -0.36890603627037    2.46520717390735
H          -0.72366608895072    1.08344935611557    2.30218371192898
O           0.46792194062460    2.30829342582425   -1.55187711681611
H           0.64971664289288    2.42749523441950   -2.48516767037744
H          -0.10410874240522    1.51723543916018   -1.48596947445669
O          -2.13669917085743   -1.27623967057352    1.24325884730378
H          -1.47117214947633   -1.67101046347779    0.65138788362780
H          -2.61560526470131   -0.64502116955358    0.70078981811080
O          -1.12153821645737    2.07687702886520    0.90865978270111
H          -1.25637177397197    1.38032416146267    0.24722369972932
H          -0.56731912624635    2.72850805900642    0.47100805086341
N           1.40590955339878   -0.80830085110421    1.38469075868953
H           1.89314342379815   -0.11450409282315    0.74737721570778
H           0.85561148118837   -1.43098616702924    0.74625885970703
H           2.07991010291321   -1.34536262026679    1.91940538964058
H           0.69061009323853   -0.32258069924061    2.03734903271081
