    26
        -50.46501814  Gyration_radius:  2.55067151182 Dipole_moment: 3.803
 S           1.52332012507307   -0.46991390117946    1.68654520770276
O           1.08629211548628   -1.79040826225328    1.24408581951283
O           1.73217241975014    0.41494454909888    0.54847837175485
O           0.65497073164921    0.10559828921843    2.68669662477327
O           2.93197140503294   -0.69244972836478    2.36608750446222
H           3.35385965723614   -1.28218481481059    1.74927387747334
O          -1.08450646462253    1.75374043254284   -2.37952120983148
H          -1.80735186884617    2.36197056478687   -2.53306829300891
H          -0.71813493502966    1.97741671954813   -1.48947350768282
O          -0.24035231229426    2.19119144351585    0.09800848518089
H           0.56547436439905    1.66617580481282    0.26237935428219
H          -0.90118657045042    1.83496641453807    0.70719158458285
O          -1.74032177253147    0.57334072164695    1.85520751562198
H          -0.83276374236572    0.42027501486927    2.23580947430981
H          -2.30188551445259    0.80118907409481    2.59779295933186
O          -0.80622921489459   -0.90055579151257   -2.30576656183399
H          -1.02141279430746    0.04595356800150   -2.44605970717566
H           0.17880143566841   -0.91708084299209   -2.28613935744806
O           1.80634739091712   -0.52280923686953   -1.92731018280565
H           1.80942565316330   -0.23207472689343   -0.98985816470422
H           2.02870776162381    0.25881191804978   -2.43804675658447
N          -1.26633953184025   -1.52639198632708    0.15570988748587
H          -1.12949762337223   -1.25841204729752   -0.89674522290624
H          -1.84596903757522   -2.35495343670765    0.23639674713266
H          -0.30409751191584   -1.71605593965860    0.56860273503701
H          -1.67129415551004   -0.74228377986112    0.69372279534395
