    26
        -50.46700409  Gyration_radius:  2.48628029701 Dipole_moment: 4.811
 S          -0.51152817251239   -1.14184409263438   -1.26683865539537
O          -1.84159101152385   -1.04071316949952   -0.69216483019492
O          -0.31469315628465   -0.19624194046080   -2.35383191635781
O           0.54263980409232   -1.07073926240399   -0.27726860819528
O          -0.40222137683099   -2.59313889842028   -1.90031786421968
H          -0.98648652145326   -2.55439511863989   -2.65120476863479
O          -0.11372708836586   -0.51052966119043    2.26935109738894
H          -0.63220355708044   -1.25939853059413    2.58633825522435
H           0.15209768470893   -0.78857443169727    1.37032000721625
O           2.48131979734463    0.29545060628386    1.05667916380383
H           2.00452871523028    0.25605009139382    1.89295043344077
H           1.97879072504665   -0.28316480039267    0.45887336934476
O           2.22212247665009    2.57167497092646   -0.23335824521073
H           2.92228488511269    2.56731691038069   -0.88786626684566
H           2.38152853026193    1.77497526465150    0.33705054707634
O          -1.75628727518200    1.10620366628713    0.89409560898447
H          -1.19947083417868    0.70263024814927    1.59548382961632
H          -2.04718019107164    0.34264087816770    0.35888343036183
O          -1.26785445345336   -2.86440389385579    1.21839224917805
H          -1.63131308535520   -2.25233287538437    0.55790591468324
H          -0.57797929473500   -3.35278670914671    0.76598266644469
N          -0.27724376007924    2.07793480511053   -1.02937103076131
H          -0.71051071670021    2.85686258484492   -1.51486498949927
H          -0.25244849860341    1.22495212719671   -1.65141374952098
H           0.70320485885965    2.32887897814311   -0.73104250986473
H          -0.86577849390345    1.80269224278951   -0.17276315806233
