    26
        -50.47227679  Gyration_radius:  2.37471755648 Dipole_moment: 3.572
 S          -0.13338613130947   -1.29680674439073   -0.84935242040223
O           0.41338101329398   -1.02563988896992    0.49729437999154
O          -1.21211600637063   -0.37475692442666   -1.14710461749678
O           0.91533438557896   -1.28486806422387   -1.84408064642799
O          -0.71782892450248   -2.74463377364726   -0.81003723489954
H          -1.30393266024018   -2.74129181990066   -0.03576129234839
O          -0.26439112292017    2.14034473187275   -1.27153678046463
H          -0.29037041386603    2.19397955710011   -0.28893073125603
H          -0.77824013528169    1.33171649469044   -1.45967208388923
O          -0.28486115144703    1.47915703752455    1.31626271059374
H          -1.25087351400570    1.40767387826445    1.42899832982085
H          -0.02686626342594    0.57419899485036    1.06400192919485
O           2.55081172590872    0.59345776798504    0.97055012837843
H           2.06601921192848    1.24011675156132    1.49488466948051
H           1.95298503253044   -0.17397275928320    0.90162029601715
O          -2.75175600374067    0.39887847968847    0.97238625488155
H          -2.79567443312509   -0.43803813157377    1.44607343349066
H          -2.38271690301577    0.17359153618997    0.10046013493310
O          -1.62988004570504   -2.16999739473394    1.65085012298660
H          -0.81291268772979   -1.66982777332014    1.43543838817358
H          -1.41411568572104   -2.75815779386124    2.37728092263490
N           2.06348000996154    1.04693143426967   -1.61014863336395
H           1.16897924782985    1.64919146684811   -1.56295461403168
H           2.73174095065086    1.38311073772471   -2.29435057479589
H           2.46970527538230    0.99211527334096   -0.64233261180944
H           1.71748520931398    0.07352691639764   -1.83983942938683
