    26
        -50.46227061  Gyration_radius:  2.58471536675 Dipole_moment: 1.899
 S          -0.38864923895022   -2.13004552350574    0.45067883636588
O          -0.79906107877979   -1.24526996608552   -0.64033704636585
O           0.97195074952790   -1.80423139046790    0.87206876624613
O          -1.33672153577027   -2.16539156209398    1.53051417391374
O          -0.31753440443800   -3.58453938383397   -0.16314551939737
H           0.37592823368853   -3.49513857107168   -0.80893834784480
O           2.81154872512466    1.11835569719537   -1.00596596321695
H           3.53691767991144    0.49759738471614   -1.08759422248676
H           2.09516670284780    0.78242498869163   -1.61460311755900
O          -1.32006842573665    1.12805993422808    0.34620391343256
H          -1.27148047795154    0.23949446199546   -0.07835325668041
H          -1.68141683114170    0.95568631522771    1.23868270068526
O          -1.08094542924461    2.13244696174785   -2.23798529787062
H          -1.22943591944847    1.99819435934540   -1.28933103650965
H          -1.89247332223920    1.87291748099021   -2.67743498821866
O          -1.73291402993804    0.11627778753193    2.77802177089037
H          -1.56494015274406   -0.77659935514175    2.39730006350790
H          -2.52027634186206    0.02216341679870    3.31634913860372
O           0.79374407894582    0.12694822004121   -2.34334943851162
H           0.26258163525959   -0.45635467063825   -1.76899663669345
H           0.22199502837964    0.90306443436824   -2.49615687835127
N           1.22396465607852    0.77450300633821    1.07686442849871
H           1.93179367647144    1.03746162744913    0.33491203418051
H           1.16719416034490   -0.29034038834730    1.08203655430496
H           1.47592100002048    1.12639464407713    1.99377712301237
H           0.26721083165832    1.11592008042893    0.79478225608386
