    26
        -50.46379222  Gyration_radius:  2.52736869221 Dipole_moment: 3.681
 S          -0.06422020047004   -0.72889087741431    0.19812416715089
O           0.08565373016518   -1.78882444159660   -0.76656461822522
O           0.99889175143890    0.30063020656322   -0.00126875305480
O          -1.39082112097505    0.00533029628490   -0.18131855818121
O          -0.12670340491738   -1.14697693513973    1.57528622071972
O          -2.22931685356004   -0.74470978448619    3.15345300578215
H          -1.42142651252213   -0.99127836515001    2.65621471561235
H          -2.86021016452297   -1.44959274754648    3.00212699189630
O           2.92839855019511   -0.78856355645576   -1.57159725786971
H           2.32789802174436   -0.38071688963525   -0.91921928318276
H           3.20669977489278   -1.62029235137315   -1.18454015748900
O           0.66139197329118    1.45729848894563    2.39160265596036
H           0.93094368281710    1.09510232486620    1.52804902397288
H           0.65254197373435    0.70006347359722    2.98415854834938
O           0.82320791833960   -1.15743447349604   -3.19742150732374
H           0.32448016494733    0.19334056720631   -2.82951652804323
H           1.76492421063607   -1.08770405881603   -2.93638015189603
H           0.42521434518930   -1.61638082930649   -2.42057556368390
O          -1.92383206473506    1.52619089964412    1.75310523675352
H          -2.25854928936298    0.86436469248068    2.39198922523482
H          -1.01115886884910    1.72980445490615    2.06487830174628
H          -1.65104560361389    0.64023257770201    0.59113423011408
N           0.01545029885777    1.07941940881038   -2.24748267673874
H           0.26396416632972    1.96011331698439   -2.68667489114298
H           0.50978710142787    0.92977088928180   -1.30779741921263
H          -0.98216360047348    1.01970370314250   -2.03976494724971
