    26
        -50.46061522  Gyration_radius:  2.54382073149 Dipole_moment: 5.964
 S          -0.03536626859692    0.24438494886628    0.43557646950335
O           0.75179422728188   -1.07584702125910    0.64186590659134
O           0.98563272629140    1.27096842397909    0.26654040356288
O          -0.79440869757458    0.08558649721980   -0.82567835746737
O          -0.91289757388096    0.46435195289559    1.55636220765125
O          -2.84582784760126   -1.20101411350264    0.31568548792892
H          -2.99695270418019   -0.62252284283416    1.06896156253264
H          -2.20842710955290   -0.72122335265665   -0.24332053933533
O           2.63503873621946   -0.17098769213116   -1.16427323602332
H           2.57707895423285   -1.05026788968763   -0.77940456101338
H           2.18258462815227    0.41417644192598   -0.51173296247731
O          -1.10982863748981   -1.22880107074333    3.59924531796433
H          -1.08746905971761   -0.51435545626255    2.92889218970231
H          -0.39587320792142   -1.04429890107340    4.21068757820009
O           0.73179360278597    0.46081645702890   -2.73682275818087
H           0.82154985854188    1.54287447548515   -2.59077556865367
H           1.58189428880603    0.10311727265077   -2.30432293574800
H           0.00304426156520    0.23241095633026   -2.01413244317959
O          -0.96409192800721   -2.75517549640139    1.38557561220132
H           0.08216572332387   -1.81085393405677    0.92504739137025
H          -1.05888865288904   -2.47446158893044    2.31805942366071
H          -1.76787097213019   -2.40452594375808    0.93625187917113
N           0.93730900239389    2.86010353087451   -2.01557623061778
H           0.14306518359783    3.47164568511199   -2.14988028844628
H           1.78672718748333    3.37148528001721   -2.21651195957081
H           0.95822426886271    2.55241338091238   -1.03631961932758
