    26
        -50.46938914  Gyration_radius:  2.38055919261 Dipole_moment: 6.014
 S           1.33297575990577    0.68862555040348    0.14279123105797
O           1.48510899558605   -0.53672459571624   -0.60739708165949
O           1.34555594819875    1.87108278237388   -0.70228853355107
O           0.17743381998601    0.66224201956977    1.02944760899672
O           2.60311306165280    0.83535254171059    1.08717509263767
H           3.21167601344961    1.31070645150017    0.53147934667344
O          -1.57084819679742   -1.31228941441462    0.24410350457874
H          -1.06285468746813   -2.13848506946467    0.38534197190358
H          -0.98471219657444   -0.63442813598719    0.62013197499839
O          -0.68982214910878   -0.77213878252892   -2.19297133397496
H          -1.20839010971629   -1.12384150176594   -1.42841903576690
H           0.22938265738352   -0.81607512305312   -1.87255367683430
O           0.56637053417687   -2.89981203181525    0.58314824179064
H           0.80590820798404   -2.62884037586564    1.48335101703695
H           1.03591582112226   -2.27254081206108    0.01375450126993
O           1.33184804743957   -1.20040389887678    2.63788698537047
H           0.86072005941954   -0.48223271300848    2.18857228675089
H           2.24203922841858   -0.90799118859623    2.70969992652971
O          -2.35068947386486    1.55734188624057    0.51258968806795
H          -2.77606087701710    0.69294829577885    0.54369786801447
H          -1.49585948605294    1.43284656221123    0.95983084763621
N          -1.03531948972658    1.76287965875548   -1.79688667919442
H          -0.98194937374460    0.73120592639172   -2.11924783527847
H          -1.30172977363199    2.39377412117125   -2.54475730236852
H          -1.69922478587925    1.81057214778835   -0.98016725134580
H          -0.07058756468777    1.97622568872759   -1.42831332372337
