    26
        -50.47132781  Gyration_radius:  2.39808523008 Dipole_moment: 2.032
 S           0.05181217230596   -1.67665360346265    0.36840554141192
O          -0.82178479348707   -0.72945729166440    1.04328737606987
O          -0.65550665444624   -2.50628011908786   -0.57932012039609
O           1.22356806361840   -1.02189315799355   -0.18792926355991
O           0.58490324900236   -2.68190712452560    1.48564085368722
H           0.01654975651823   -3.43118893527727    1.34230139549020
O          -2.49188349333775    1.12192583993186    0.16297980016464
H          -2.30177331150000    1.78862198238021    0.82939360519592
H          -2.04218301570501    0.31217156693833    0.48516987978387
O           1.28721980791400    1.67472652318404   -0.52696242105861
H           0.95262083588091    1.87259666712809    0.38203321125742
H           1.49708728115684    0.72399321689262   -0.48456197926493
O           2.05357631450784   -0.40720659209273    2.32191326180478
H           1.89394442681102   -1.20931305964271    2.82173452196913
H           1.88940295399378   -0.64660761975931    1.39593109776908
O           0.20719466053947    1.60153887339018    1.89441209538510
H          -0.24014985878338    0.76162835147767    1.66928258156834
H           0.98725184411551    1.30336009633055    2.38315626499885
O          -0.15216274849224   -1.04793220170574   -2.68768376110227
H           0.80241249901839   -1.03239306030677   -2.57089160536282
H          -0.46449587405955   -1.67307067870265   -1.99500352920896
N          -0.87406985803784    1.40031448815357   -1.93477886771515
H           0.04006491442930    1.65321973429020   -1.41586359533411
H          -1.10200353660664    2.06814602641467   -2.66236714125814
H          -0.70933178098888    0.43701026073557   -2.33533461308486
H          -1.63226386436601    1.34464980697454   -1.20494462921293
