    26
        -50.47191651  Gyration_radius:  2.41596418115 Dipole_moment: 3.484
 S           0.10557855550057   -1.09971767294407   -1.57565714213124
O           1.13051539039940   -2.08326515595225   -1.33216289636887
O          -1.10862089756483   -1.33258774596164   -0.80377112431899
O           0.56979794403167    0.27329954713809   -1.41612877930195
O          -0.29177904973624   -1.24498299942417   -3.09940375630454
H          -0.13570888326802   -2.17532488504557   -3.21248515431764
O           2.38767863883223    0.92340698280454    0.33645633263818
H           1.76251871620897    0.64095907349681   -0.37811009333758
H           3.08745624706300    1.40958405525011   -0.10165222247424
O           1.91608352174902   -1.73673375967291    1.20052863953535
H           1.70771223223325   -2.03280407460776    0.29259745825127
H           2.37460825935182   -0.89426898514923    1.08811436214694
O          -3.09876181430942    0.40794998319151   -0.64675668317371
H          -3.64795414133200    0.07950416740718    0.06688446863551
H          -2.41955496781994   -0.28247650057683   -0.80265911070437
O          -0.56523380451676   -1.03264138386988    1.77722130562922
H           0.33847013899381   -1.43009901684365    1.77755701019166
H          -0.89323107092133   -1.21735877042556    0.87239533275823
O          -1.09377799811781    2.18566345252449   -0.55470341184546
H          -0.49404901623078    1.60854767060960   -1.06853665875852
H          -1.96191931379026    1.73669814749179   -0.61263590472715
N           0.06688935004976    1.48290006430600    1.66860992551218
H          -0.47887601758941    1.87988079442234    0.82906301582121
H          -0.25834687733472    0.45745769518589    1.80433706323035
H           1.06002715928235    1.44088401538075    1.38262223190855
H          -0.05952232115910    2.03552532127006    2.50827579153395
