    26
        -50.46464514  Gyration_radius:  2.60577301426 Dipole_moment: 3.485
 S           1.42277455624308    1.07072190401835    1.12905618108163
O           1.18421330800109    0.38669553907419    2.38243006027693
O           2.16239594415851    0.23666725877873    0.18660593329753
O           0.23262429532009    1.63841584647146    0.52172962445266
O           2.35811785965121    2.30570197415209    1.46973218578971
H           2.97956534310094    1.93471931370001    2.08802189724248
O          -1.41133721039628   -1.75824976743582    0.37137115848473
H          -1.61508088339469   -1.14411394901130    1.11075527945880
H          -0.51869303450462   -2.10328670067667    0.58200441637423
O           1.72942246797657   -0.87034003742749   -2.20359275745751
H           2.06401156013732   -0.38580664282696   -1.42237616112514
H           1.86741326124280   -1.79926463378860   -2.00395974054962
O          -2.91253178626062    1.24037366212148   -2.60578040700131
H          -3.74234963197427    0.83739891043098   -2.34060739063754
H          -2.97870966975649    2.18196707258307   -2.43261211895587
O           1.18884345807344   -2.09696631269586    1.02301191207109
H           1.18011768199641   -1.97730191722182    1.97644574310063
H           1.61798327962571   -1.28546860747887    0.68743887136472
O          -1.46411682059900    0.22755715129602    2.18498733262945
H          -0.53022453507620    0.18726727400806    2.46804226003414
H          -1.49322399065477    1.03169552000137    1.65692538537206
N          -0.67519585439302    0.03326251623208   -1.39228921531421
H          -1.40320126037623    0.42661694376112   -1.99938493568695
H           0.14338671821929   -0.32683664121382   -1.92849749617229
H          -0.31933344434224    0.76211771674632   -0.72805252190274
H          -1.06687161202142   -0.75354338359436   -0.78140546622136
