    26
        -50.46849338  Gyration_radius:  2.56065438967 Dipole_moment: 3.328
 S          -0.12377317327688    0.76871407539280   -1.94348639557604
O           0.96315191231630   -0.17333443198795   -2.16605545263443
O          -1.41580297508029    0.11359733430970   -1.94760741561490
O           0.06963159540801    1.60268619166429   -0.76649557884109
O          -0.09389055149273    1.76981465333036   -3.17295497165358
H          -0.05227369603594    1.20587802923083   -3.93986485690439
O           0.10506684126864   -1.92541658418768   -0.42341646649846
H          -0.58194390228529   -2.41987023008961   -0.87509842185183
H           0.49317534498865   -1.33223294939329   -1.10964844982922
O           2.04469941852519   -1.19038002689827    1.60834108720255
H           2.36741192744956   -0.45725082587177    1.04009456044361
H           1.55202124469778   -1.77097548675071    1.01862382525730
O           2.56227718927093    0.77705588822597   -0.16830343366110
H           1.76329085808858    1.32639886998086   -0.22412720912147
H           2.53847918136323    0.27724554506451   -0.99396415154503
O          -3.34221277482037    0.10999550287922   -0.10112844157129
H          -2.72184242448930    0.06863521416499   -0.86017376094664
H          -3.99636457490570    0.77175595566723   -0.32830399798811
O           0.47707425663464    0.00476879767948    3.36457293552149
H           0.95418255600527    0.77012433691886    3.68822537146745
H           1.13471215983659   -0.52784312111910    2.84822987623475
N          -0.95300505609764    0.05174166382912    1.11984396180505
H          -0.57440621338244    0.81492550299886    0.51240486691291
H          -0.61309550288989   -0.83102816350413    0.67938583458982
H          -0.57303732436266    0.11847201153452    2.09594794733470
H          -1.98352633674905    0.07652224696214    1.04495874745065
