    26
        -50.46147048  Gyration_radius:  2.59185781917 Dipole_moment: 4.233
 S          -0.17618874255786   -0.41353472161782   -0.59613832329691
O          -0.01679828651069   -0.47425516304359    0.85005966146518
O           0.11091279256261    1.07710281813594   -1.00822268942554
O           0.72363483582554   -1.27879348562304   -1.31998203126712
O          -1.59190045472864   -0.60658115309876   -0.95458706680376
O           2.43002611393519   -1.59470282244899    0.72328398373303
H           2.00036749969801   -1.78323126809846   -0.12766732049014
H           1.70619040266165   -1.19916380658258    1.23026604971625
O          -3.09439667891058   -1.51492001292826    1.09747101267681
H          -2.59097431446483   -1.29908167266057    0.28716145028367
H          -2.80032308681854   -2.38671076958886    1.36581024414543
O           3.96689173198887    0.42048851099237   -0.10039930066099
H           3.45906409242027   -0.31931740249923    0.31226199347051
H           4.86171009255155    0.09775459748456   -0.21734207793346
O           2.32412598372622    0.69957282368329   -2.19127383308381
H           3.00268583610002    0.72762778247263   -1.47659181245880
H           2.03211767645009   -0.22355759543971   -2.23867851650390
H           0.99932349781911    1.06969216735321   -1.49429624699989
O          -1.95473738865378    0.64629689994808    2.21753238617486
H          -2.27818330806984    1.40155054395966    0.97164085427544
H          -2.55851994724006   -0.11889289545238    2.12527200515026
H          -1.09509810407154    0.27995763280446    1.90129886971216
N          -2.37595588980353    1.68023430541127   -0.08967046259891
H          -1.62059455402669    2.30878787264989   -0.35864514585723
H          -3.28881302870678    2.05776453488597   -0.32225135856343
H          -2.17456677113962    0.74591225931252   -0.58631233487258
