    26
        -50.46898038  Gyration_radius:  2.55773523062 Dipole_moment: 1.087
 S          -0.00058709645922   -2.00974637253738   -0.11931341538917
O           0.33856199170889   -1.81409477557697    1.28431702958850
O          -1.43026563572604   -2.06798025803046   -0.33378525634595
O           0.66615698175401   -1.03782425242648   -0.97123933726610
O           0.56978634925819   -3.42841879157521   -0.53481061057568
H          -0.13730601593831   -4.00649969295018   -0.26808873477481
O           2.37867540435004    1.07353947017126   -0.52021912032837
H           1.94971804679883    0.28083298371965   -0.87925233257551
H           2.37172585197989    0.92807155379789    0.44236243057062
O           2.00724759269965    0.11853713403783    2.02732700086005
H           2.75763950280992   -0.24357650041902    2.50013237505943
H           1.46761228778106   -0.65087259841084    1.73988538521365
O           0.71739901657486    3.02328162696553   -1.20632728208576
H           0.96808943526843    3.33427485926756   -2.07675833334214
H           1.43221906460733    2.39764815372140   -0.92297686087092
O          -0.88209675820336    0.46960478280748    2.01095028541637
H          -0.64885432448756   -0.46603244175828    1.85570312353217
H          -0.08086119085007    0.85961339794525    2.37927222171586
O          -3.14077101416571   -0.32601353901673   -1.40802707146082
H          -2.56586478856821   -1.06096729952409   -1.10440392645136
H          -3.96031373586513   -0.41843067376306   -0.91956269277939
N          -0.97038823169969    1.03495923480268   -0.60605331586738
H          -0.53440907615596    1.93550759551885   -0.90403709693168
H          -1.89727706183078    0.83300937304896   -1.02547857777407
H          -0.33156108315167    0.25308283744318   -0.87953332746412
H          -1.04427550249143    0.98849416274306    0.43991743033233
