    26
        -50.46858996  Gyration_radius:  2.40894919802 Dipole_moment: 1.472
 S          -0.39513389475387   -0.79704577402548   -1.60314929220130
O           1.01577412923557   -0.78274972391913   -1.24063470471501
O          -1.12202748072315   -1.79639676940971   -0.83026544489532
O          -1.01146701762134    0.50961268008152   -1.54702765517263
O          -0.46637129849949   -1.25547020473918   -3.11272093317278
H          -0.14981866025291   -2.15299801100395   -3.09103431460056
O           0.32442285206576   -3.10883816727378    1.15262617762862
H           1.17233268561912   -2.65920486597541    1.14644404801664
H          -0.13507251580120   -2.83867957672381    0.34504919732318
O           1.35832381504571   -0.21526960095347    1.33412434097845
H           1.36765295446782   -0.46750348385066    0.38664856602278
H           1.38036455686498    0.75714329907536    1.33779980037634
O          -1.68140062750688    1.79082427167433    0.74028713504173
H          -1.64361288685262    1.47869017671251   -0.18234555832082
H          -0.81226547367159    2.20238565202725    0.89651927835542
O           1.26306182441463    1.85153442915231   -1.69856294026475
H           1.64721749597699    0.96317417723450   -1.65000994912276
H           0.32429536050541    1.65834196279199   -1.86758366136646
O           0.99357874604659    2.47301486165280    0.84401655319480
H           1.14540964823508    2.32728088464031   -0.12957891734846
H           1.44518554851051    3.28681759377926    1.07016515785183
N          -1.22894451701329   -0.65335978473839    1.56910930115535
H          -1.57927257120428    0.33839407998129    1.41040194431287
H          -1.66659883984862   -1.13000020187291    2.35041177572973
H          -1.37182560771486   -1.18846377114486    0.67943049294495
H          -0.17380824550483   -0.59123412318481    1.68987959226044
