    26
        -50.46971981  Gyration_radius:  2.5135372151 Dipole_moment: 1.761
 S          -0.96807432178906    0.31190787301400   -1.60801770304085
O          -1.91468141490318    0.02301873692539   -0.53396845197511
O          -0.25207580002863    1.54879820824442   -1.36050393959456
O          -0.09707170561529   -0.81216029197081   -1.88219825019267
O          -1.82466799147234    0.52896933334431   -2.91832998701570
H          -2.38514387074038    1.26616220598634   -2.69721785603531
O           1.70096616194099    0.89134146582864    0.29554911025333
H           1.06901270237709    1.30162140028918   -0.33112686360817
H           2.26858842785573    0.32751148956553   -0.26030032473119
O           2.54768405159121   -0.85762374229037   -1.61678562252458
H           3.00216272971641   -0.58185298180995   -2.41366078664282
H           1.58898794484364   -0.83891019478901   -1.82588924731715
O          -1.56938832821735    2.05501093230029    1.19187894209887
H          -1.88576509059730    1.36011649948112    0.58624237046961
H          -0.85653981281597    2.48658796851806    0.71203966180063
O           0.78261439603372   -2.85373362383190   -0.23524030064485
H           1.71333499825575   -2.72018869070061   -0.44054154658750
H           0.30606285408959   -2.37316336155474   -0.93233360138618
O          -0.97946343915342    0.56479882517554    3.39214220509489
H          -1.30052825791519    1.18165139345843    2.70027475433724
H          -0.48610903305625    1.09610597979545    4.01813815986417
N          -0.09285742325227   -0.80326849972476    1.25657801962511
H          -0.90155371541754   -0.59143177426112    0.63213527002086
H           0.22393936483762   -1.76865709658531    1.04505582422802
H           0.68504564186371   -0.12869891899758    0.99003976443070
H          -0.37447906843819   -0.61391310543617    2.23604037906490
