    26
        -50.47088769  Gyration_radius:  2.47016708863 Dipole_moment: 4.747
 S           0.08088450823825    0.65002824550835    1.24176457254134
O           1.44164311009775    0.74302138816848    0.73827118564887
O          -0.89113686412215    0.71791716221009    0.13702461549523
O          -0.09969506075971   -0.56688230834673    2.01403992394134
O          -0.19223284780926    1.86892299761139    2.16743109212127
H          -0.21488045310541    2.63621414771372    1.54367276262389
O           0.57490338976630   -0.21952115457630   -1.85714833946208
H          -0.10179550798699    0.17533192522534   -1.26834772956215
H           1.19611040591595    0.50177806320410   -2.01902693054715
O          -0.30917382818347    3.36551772147653    0.01462545402070
H           0.49654629864796    3.24935420440353   -0.52096376487311
H          -0.88836645808859    2.64033437458330   -0.25688435220485
O          -1.42133041130902   -3.25556991179976   -0.58892706931837
H          -1.94822036613520   -2.61414944734293   -0.04101117179103
H          -1.68719818124558   -3.10225959082273   -1.49781611503581
O           1.90569690183665    2.30375026548806   -1.26986343427729
H           2.77994073558008    2.68982670664857   -1.19993151171238
H           1.80260075483645    1.71128822768898   -0.48269507534633
O          -2.49168042110843   -1.31423750459964    0.83374861217192
H          -2.09249106535691   -1.39240125184228    1.70734596034357
H          -2.07037933659602   -0.51346308032185    0.46531848993136
N           0.85279783105099   -2.07365575465897    0.03138955176145
H           0.95328960023685   -1.35423225728067   -0.74021698255516
H           1.70924516569064   -2.59909846364559    0.17096673856433
H           0.58592010393532   -1.55243986369922    0.90757180466785
H           0.02900199597360   -2.69537484100853   -0.23033829713398
