    26
        -50.45846328  Gyration_radius:  2.48962571258 Dipole_moment: 3.688
 S          -1.13016388725183   -1.29818515281820   -1.26337674067254
O          -1.20036193433407   -2.60384246115513   -0.63974868920064
O          -1.95004905978011   -0.29300213291049   -0.61519748485909
O           0.24101280422051   -0.84073882959811   -1.43394430558537
O          -1.73274768590873   -1.47497859909924   -2.72389208423870
H          -1.41544437540990   -2.33725352390029   -2.97273520162077
O           2.29976523415975    0.32174591652276   -0.21898436697255
H           2.28807406157633    1.04232071197478   -0.87100481507411
H           1.73400597142403   -0.35510042229334   -0.64060676352570
O           2.04127783103180   -0.74433056202851    2.59026387562010
H           2.60361851293322   -0.69647808673725    1.81195969318898
H           1.33054498023323   -1.35780384885673    2.37161038607610
O          -1.43856184788318    2.20794906305958   -0.31314991214504
H          -2.27354316970130    2.66839564223592   -0.21978865739959
H          -1.67084178179429    1.26212839455966   -0.52682787195278
O          -0.58671367837180   -1.54821581363945    1.62999373854984
H          -1.38241372850387   -1.70216228905910    2.14402697087200
H          -0.75655007016609   -1.98897195284438    0.75886295712856
O           0.82094380432841    1.77352244641256   -1.99983568884927
H           0.54242998042213    0.84198256482138   -2.02981551063180
H           0.07732203276751    2.24154387063293   -1.60394688767865
N           0.30052796886300    1.00452948216761    1.36958724068907
H           0.57957367494540    1.34139765652449    2.28674838906040
H          -0.33874837714575    1.64875120561174    0.86128110896438
H           1.17470248266643    0.82032209398364    0.78011241165213
H          -0.15765974331848    0.06647463642909    1.46840822860441
