    26
        -50.46444744  Gyration_radius:  2.49820247907 Dipole_moment: 4.340
 S           0.52245968436466    0.84469223679956   -0.41971817806266
O          -0.22180577446277    0.39682871461154    0.77115752947436
O           1.85162837567469    0.23461826038707   -0.43203630437096
O          -0.21840145947051    0.54932559231594   -1.62925179779153
O           0.67812133555457    2.37651410351467   -0.33955552631528
H           1.26400191868587    2.60020753039929    0.44119659059450
O           1.12527860478702   -1.97850235529353   -1.63682675221879
H           0.85430391682522   -1.62543755567189   -2.48844384184069
H           1.55618050244055   -1.21345219422285   -1.18792454135966
O           2.29789878804156    2.78724846412706    1.63843338530940
H           3.17570073602318    2.93890221808059    1.28145452003821
H           2.31073299082513    1.87805223515889    2.03193706732354
O          -2.96201225810792   -0.17815902255299    1.16341329315775
H          -2.12142525869963    0.28676518313026    1.25543434823273
H          -3.22917133665741   -0.05175021105303    0.24701073297591
O          -2.62047629616779   -0.45614048041368   -1.69147075052783
H          -2.97683743886601   -0.40408631702258   -2.57913495919535
H          -1.76659878966086    0.04348642408124   -1.70499960210283
O           2.12016190672464    0.21551566162791    2.20006153284323
H           2.22653018428847    0.06651144574288    1.23920702343505
H           1.16721902162965    0.15860675323793    2.33573191866285
N          -1.01604649702914   -1.93431993241001   -0.09069906489880
H          -1.83013762197789   -1.66472248091676   -0.67629087269138
H          -0.18930506058901   -2.16723332639975   -0.71188668458929
H          -0.73861916104704   -1.03686244418425    0.41452229396463
H          -1.25938103312654   -2.66660850306936    0.56867864993286
