    26
        -50.46464510  Gyration_radius:  2.60679552465 Dipole_moment: 3.537
 S           1.61334453353740   -0.22555975145414   -1.33827884497166
O           1.42409124881800    1.02668968509824   -2.03962598349887
O           2.18062635947886   -0.02345104113448   -0.00849086383186
O           0.43387371513292   -1.07083130950625   -1.29413831421285
O           2.69064224819952   -1.04001899438139   -2.17018952087146
H           3.32383453747856   -0.37026129079830   -2.40827009131287
O           1.06508810439345    2.35338417093483    0.43700285279533
H           1.53872653384464    1.50509063198180    0.32992878270451
H           1.15367811153127    2.77822864497468   -0.42034415922667
O           1.43100266300327   -0.42309519096433    2.52197185605462
H           1.88000109019039   -0.38878110500340    1.65348970675361
H           1.49428915820280    0.46733947726621    2.87546930208352
O          -1.23427352262994    0.96916819799602   -2.12933202196945
H          -0.28642578677245    1.18596376602354   -2.22206647420571
H          -1.23530230000877    0.00676834087556   -2.13143151099604
O          -2.98680762201734   -2.57716069271637    1.13536236414427
H          -2.94012581516549   -3.27794026625814    0.48139427135590
H          -3.83308653512087   -2.13681155352266    1.02925569017355
O          -1.53790562954846    1.62899937926794    0.46086911463771
H          -0.66750300509341    2.06098832622194    0.58759989577635
H          -1.61408929406355    1.51693436990232   -0.51221145229355
N          -0.79160177527508   -0.81202357873722    1.05007360439472
H          -1.52729524007193   -1.49900169130542    1.25024474388853
H          -0.06229768161286   -0.77773152089805    1.79465612526729
H          -0.30932745488378   -1.04400004442247    0.14859951181969
H          -1.20315666154951    0.16711304055825    0.91846141553753
