    26
        -50.47288997  Gyration_radius:  2.42611496735 Dipole_moment: 2.395
 S          -1.53574239052673   -0.50064561919402   -0.65379085490444
O          -1.71684073748629    0.10141108189020   -1.95179262322813
O          -0.31421101161272   -1.27982523684566   -0.55017262795892
O          -1.65443264376211    0.45604202464281    0.44121757974975
O          -2.73906548105696   -1.52348792708265   -0.47452776906508
H          -3.26329730782289   -1.32803700970376   -1.24360798228784
O           2.37942978133586    0.56531497047768    1.03215531113238
H           2.55160039451782    0.22583847544449    0.13868165115529
H           1.94313353754307   -0.18665275386221    1.50225943319005
O           0.92927772974509   -1.49835300295968    1.84493420940427
H           0.53394502979851   -1.58737118586714    0.96027075695332
H           0.15902700912561   -1.44902163974569    2.43210973865771
O           1.97518048968253   -0.43469297205924   -1.54013540101744
H           1.12449848808954   -0.79696760178970   -1.20123770974932
H           2.42173168449454   -1.16352154632567   -1.97341775138955
O          -1.76512297238533   -1.34786169195163    2.42153399936356
H          -2.25070191989013   -2.07055636868920    2.01977103669019
H          -1.80213196770013   -0.61847941675481    1.77908002682640
O           0.39511231568640    1.72904669383567   -2.22839948734476
H           1.10658387191162    1.06995222078371   -2.26783358243586
H          -0.43626385199927    1.21454684817029   -2.27929565041208
N           0.39290196772053    2.11617830613384    0.37628296169079
H           0.45792670119592    2.16858625967768   -0.68246831768415
H          -0.46444846718019    1.54255041005955    0.55920648093765
H           1.24712168362987    1.56300640068670    0.73605366022869
H           0.32478806691395    3.03300029102483    0.80312292150765
