    26
        -50.46061527  Gyration_radius:  2.54375297313 Dipole_moment: 5.968
 S           0.30622314534510    0.39585921566919    0.01218122618369
O           0.32945075607003    1.82956291488724   -0.12401828867447
O          -0.10954831715224    0.01683534437980    1.45745496396612
O          -0.69722983261800   -0.21906166933456   -0.88612495157095
O           1.60053497144075   -0.24388835825270   -0.18900246886913
O          -2.45813730250078    1.78312453073499   -0.64725995327965
H          -1.92394141674670    0.99945205575189   -0.86959805013029
H          -1.86839725139690    2.53023140920704   -0.78494363643517
O          -0.30640112378951    3.48394950012822    1.86067900248416
H           0.46398221942610    3.58916940388305    2.42031266577463
H          -0.00774706637139    2.97768094500113    1.07663340019895
O           1.04417702960485   -2.46414102920169    1.07813013867714
H           0.50505054187124   -2.18336718930754    1.82321918044509
H           1.42391810209703   -1.62736664523993    0.71937651042442
O          -0.17539594249840   -2.62306723100279   -1.15367252802307
H           0.71268348249239   -2.47053515891654   -1.77682539337609
H           0.22171072005380   -2.77937079669952   -0.22864667153835
H          -0.52605338687960   -1.63481252519772   -1.07941978466333
O          -2.09267003427782    1.47224310855558    1.97397868663841
H          -2.47289739167644    1.58760307556140    1.07227509590788
H          -0.94368276963596    0.57273374631821    1.71033596629973
H          -1.62301571146666    2.31146559676070    2.15442180508894
N           1.93470118662544   -1.96296317981212   -2.34980616969114
H           1.85775276517389   -1.57421151060695   -3.28029702831117
H           2.74255217217356   -2.57062274922331   -2.31061120528892
H           2.06238043463745   -1.19650281404608   -1.67877251223698
