    26
        -50.46935577  Gyration_radius:  2.47724857664 Dipole_moment: 3.246
 S           0.75630554615877    1.62892253049511    0.06283202365699
O          -0.29579429461816    1.33511433392657    1.04219353006882
O           1.26380515390335    0.38236133658146   -0.50517254980039
O           0.34869610577920    2.57968548155085   -0.93284334466881
O           1.95144396537925    2.25840185365283    0.87634011797446
H           2.19800880278104    1.56274854418291    1.49203566485188
O           0.09341328638082   -0.95548921598653   -2.79712586260356
H          -0.58079246738222   -0.26060584894923   -2.83460599778180
H           0.84952237073140   -0.52922499502347   -2.37694452751193
O           1.27511308433847    0.05659130226811    2.60947573525534
H           0.58276532951069    0.50224051574296    2.05569893554819
H           1.06151223504417    0.27129221170330    3.52043115890484
O          -1.51422774133759    1.29659900829180   -2.27848339118539
H          -0.81247131129172    1.80471623959858   -1.80761759463367
H          -1.91517885766932    1.91356386938467   -2.89382134643032
O           0.80598835022134   -2.56627177565260    1.99898974204020
H           1.65327134405949   -3.00594984748749    1.91452939023277
H           1.00273550741157   -1.64606147247663    2.27242657470466
O          -2.43594220603048    0.08456862194870    0.02321182424360
H          -1.85202034908105    0.65550186860981    0.55714592209949
H          -2.39390173110113    0.47111811854587   -0.86764120444877
N          -0.42293390092603   -1.60861016580266   -0.21808522252373
H           0.29222103134995   -0.82755673554137   -0.27098434385317
H          -0.41183799522226   -2.04466913297189   -1.14540299668111
H          -0.14769001341265   -2.23201511982957    0.56156685292096
H          -1.35201124415520   -1.12697150652698   -0.05814908030002
