    26
        -50.46061522  Gyration_radius:  2.54380145409 Dipole_moment: 5.964
 S           0.43532948652955    0.12955611554856    0.21036329283668
O           1.35880139738466   -0.08964914889929   -0.89599925337521
O           0.02894335281854   -1.29049960103161    0.68297664381885
O           1.00053085145044    0.86296910782791    1.31365290994210
O          -0.80005201798733    0.77190794999857   -0.29299409041841
O          -1.62125295719114    1.58460072059809    2.12186489999458
H          -0.80266641349682    1.97122603057164    2.44639485320725
H          -1.45286155976161    1.39734317820598    1.18083598197851
O           0.09784583325541   -2.12660997096225   -1.94818673535244
H          -0.22436618727552   -2.62315895075209   -1.19038464099566
H           0.73965641392566   -1.48243264981183   -1.56595422401202
O           1.22590561924172   -0.14735419885440    3.76469005569912
H           1.23730612090345    0.31040398922301    2.89831522789003
H           2.02217404740060   -0.67899397429782    3.79668718313250
O          -1.27519126422902   -0.07169601692354   -2.57002541201733
H          -1.20754127301377    0.32020986286803   -1.59665352854567
H          -0.45461628053037    0.46696443012240   -3.05648361529695
H          -0.89175898844568   -1.00798757147414   -2.45139189082243
O          -1.18249683807590   -0.93877136699436    2.85684407434404
H          -0.41110039996721   -0.78695486262259    3.43934865010032
H          -1.56382135994601   -0.04229290732443    2.70868508309021
H          -0.49919005739006   -1.19854206155276    1.56707325834880
N           0.81476302338666    1.08023427228252   -3.36018671484372
H           0.81531950673651    2.09007216321957   -3.41556458255043
H           1.32394781496979    0.70501593961804   -4.14970458812082
H           1.28639211931050    0.79443950141233   -2.49420284803112
