    26
        -50.46930073  Gyration_radius:  2.434228801 Dipole_moment: 3.380
 S          -0.56368079054519   -0.16489430621598   -1.11399338389848
O          -0.92206868554164   -0.61682121765939    0.24480388057086
O           0.22814872776629    1.06185539278107   -1.03136470497480
O           0.13331119791255   -1.21360545819494   -1.82656878119282
O          -1.87435414547925    0.14788882778084   -1.86149046641631
H          -2.24477547432758    0.97125418476121   -1.42490872482978
O           2.60938470140262   -0.01930223115163   -1.00165609701123
H           1.81432233148100    0.54494450137530   -1.13351476843267
H           2.53579351206245   -0.69451530733452   -1.68264567428577
O           0.85655517514421    1.79224962528503    1.43751428712115
H           0.61252029701948    1.56791791739061    0.51297470954335
H           1.32442364739416    2.62677150399549    1.38320597058410
O          -2.84174380506618    2.16157201211171   -0.56490215978043
H          -2.49385222905326    1.99185335001005    0.35240608908376
H          -3.79614899811545    2.07977452843087   -0.50777230172490
O           0.97590265993073   -3.31378933804880   -0.45565891666386
H           0.23578693008565   -3.91601068558131   -0.36718392626533
H           0.66571141751893   -2.60345441931590   -1.06596578272949
O          -1.85904701286847    1.37259600770089    1.73952800049729
H          -1.65333232025410    0.51700562641651    1.31452667997985
H          -0.98171563552720    1.75260838526531    1.90704649101009
N           1.46910434493572   -1.21087099720681    1.06987485511328
H           2.07434299476491   -0.68065767014401    0.37686551511841
H           1.46541087489415   -2.20993211927364    0.76609193822637
H           1.76103724363966   -1.05959532073266    2.02940249097221
H           0.46896306082669   -0.88484278244214    0.90338478038536
