    26
        -50.46882359  Gyration_radius:  2.44139576525 Dipole_moment: 1.989
 S           1.65369522061762   -0.78266069370696    0.42982664916925
O           1.42544084977540   -0.81147205289523   -1.01332444506321
O           1.84460352596508    0.58634815989232    0.89877493180935
O           0.65536821762366   -1.50303401173261    1.17014602993834
O           3.03793360692328   -1.51042992549472    0.66236012399390
H           3.61252420125982   -0.92051613131334    0.18826524876626
O          -0.21167595307827    1.13974983712445   -1.86235557920527
H           0.03945198272778    1.91689725182512   -1.31761177655442
H           0.48202712050891    0.47497742056666   -1.67796419175549
O          -0.17192075987758    1.46009804571716    2.38215373367677
H           0.59096846711775    1.08664293654127    1.88455358789320
H           0.05205875264284    1.37271849590264    3.30983979038623
O          -0.50529199095554   -2.43648638653870   -1.77359881213641
H           0.25793657530239   -1.93917212921591   -1.39912734105764
H          -0.27290643480308   -2.62046260798927   -2.68564187711554
O          -1.78566802535244   -0.54485887091947    1.56353296881656
H          -1.43672626632421    0.29856020816813    1.91294661051343
H          -0.98628088240246   -1.10869565175893    1.51501633217946
O           0.70392363821227    2.87492976814437   -0.04014633239127
H           0.11113736944625    2.97955479459086    0.71069819438165
H           1.32488631681511    2.17726546098021    0.23366767424169
N          -2.11934413319209   -0.43204448806972   -1.02669007442046
H          -3.06221592885284   -0.32061885533638   -1.38038927422514
H          -1.45988075849535    0.33330807512545   -1.37989795183003
H          -2.09327933687435   -0.44140124164946    0.04490815547308
H          -1.68676537473355   -1.32919739795562   -1.34994240548203
