    26
        -50.46193434  Gyration_radius:  2.60950574651 Dipole_moment: 2.278
 S           0.17391655660983   -2.03389674329865   -1.48699331952128
O           1.45366267318897   -1.63745059110240   -2.04778946560144
O           0.22265575869359   -2.08469594763051   -0.02787046550998
O          -0.94430793715666   -1.24123976021177   -1.95909939117048
O          -0.08409502808431   -3.51590186696570   -1.98629768422288
H           0.78126876925772   -3.90902011843647   -1.92799938347721
O          -1.73844079571062   -0.83805305209969    1.18395553084957
H          -2.55207129088615   -1.12722226429008    0.76834710031445
H          -1.03531993459192   -1.43297970513684    0.83492561153179
O          -0.40997978858144    1.34563767956401    2.42336541115756
H           0.41581511550180    0.85691487142194    2.22520332117943
H          -1.07643207704597    0.65896012721526    2.52934797686638
O           1.58703270955776   -0.25037082785629    1.51295749315223
H           1.17029692969285   -1.02620708976702    1.10194585429952
H           2.10043978271917    0.16221378247400    0.80870637766782
O          -1.24373164725590    3.21771110940209    0.64477594222297
H          -0.92716467303286    2.64966961673007    1.38014292070220
H          -1.44917522914508    4.06917961495011    1.02950518961455
O           2.06114486742085    0.67400675032360   -1.07176805698135
H           2.57415964494138    1.15562389642563   -1.72242710762360
H           1.90736597836186   -0.23117759858618   -1.45489741481989
N          -0.60331282889885    0.92988956513503   -0.56556742839703
H          -1.02431327521755    1.86550373724444   -0.61003235293427
H          -0.90684334225818    0.49001714914759    0.33062083694779
H          -0.88615147699031    0.24483927412022   -1.31039109345831
H           0.43358053865045    1.00804839153059   -0.60266640295966
