    26
        -50.47174044  Gyration_radius:  2.3957424915 Dipole_moment: 3.713
 S          -0.13686336142953   -0.86863941705224   -1.34098908112461
O          -0.02992932058064   -1.33184059554807    0.05487376849790
O          -0.82356156944958    0.42671791205644   -1.36061976028701
O           1.15114011794778   -0.81021962985509   -1.98492506003680
O          -1.02086252941716   -1.88685433786376   -2.10268888196001
H          -1.76795068008574   -2.04857598574282   -1.47607784367060
O           2.77887816270382    0.75157728732483   -0.70536497586437
H           3.58178623017681    0.83377617753245   -1.22291577975314
H           2.18947656863664    0.13818566160635   -1.21827215242738
O           2.34447949920886   -0.55313835026663    1.68150411426899
H           2.71354260273998   -0.05350069157380    0.93163386100946
H           1.84895443652124   -1.27182942326534    1.27141581986478
O           0.61102998843629    2.38074213488043   -0.28125163182451
H           0.04496199981948    1.84673124669128   -0.87581852222613
H           1.51504253598623    2.06753740089161   -0.45764164384700
O          -2.60179065368854   -2.09256050909867   -0.03229466391482
H          -2.88178634538144   -1.18892570754897    0.20915576723933
H          -1.74083298020753   -2.20020448432511    0.39518479353017
O          -2.66992836302987    0.58977913334005    0.47411083365721
H          -3.38743455775810    1.14215824923542    0.16048308591936
H          -1.99258709705791    0.59526030384841   -0.24545817039498
N           0.03539411366800    0.72750667477586    1.66523708634700
H          -0.72466604280238    0.90504140538796    2.31298767470123
H          -0.18542479406818   -0.09707918112553    1.03515158899237
H           0.21265217512181    1.55139367035968    1.00659877818002
H           0.93627986398365    0.44696103536359    2.10598097509894
