    26
        -50.46999618  Gyration_radius:  2.46256752352 Dipole_moment: 3.053
 S           0.80717923890580    2.04851201683464    0.23703738955105
O          -0.00739546356338    2.82481904925435   -0.66605407112636
O           0.00907256135093    1.35278929822034    1.26288779606799
O           1.72910612477974    1.13705620753403   -0.39123716781506
O           1.66543477922177    3.11814348102578    1.04867793399024
H           1.38741396044180    3.92568362718659    0.62969058890352
O          -1.47610148804864   -2.10943381130427    0.51685297478405
H          -1.07643206731148   -2.15888786971979   -0.37132007082095
H          -1.99776651805547   -1.28967407723921    0.52240280278417
O          -0.05837820025246   -1.76228123266009   -1.81550119297426
H          -0.17468216962925   -2.11676434500218   -2.69777736597357
H          -0.32337604471364   -0.80559308473140   -1.87020623439034
O          -2.36868027890947    0.50824953626200    0.53839869090694
H          -3.04884681872087    1.08953725433412    0.88039227169203
H          -1.50578995761443    0.88057072213694    0.84273710102737
O           2.28814617541710   -1.44880757880121   -0.42661980303617
H           1.58748906439342   -1.72120867097446   -1.04674614185400
H           2.32636232005872   -0.47690461157703   -0.52655334556072
O          -1.02127301648555    0.67572055339780   -1.87111468969706
H          -1.73928120298551    0.59560385068880   -1.22406031145610
H          -0.54662637902554    1.48521082711757   -1.60776675379637
N           0.71825215432620   -1.16213825676638    1.64101076505058
H           0.51989831604768   -0.12821774801021    1.58528298032226
H           1.01510082903338   -1.43170038387280    2.57129312638477
H          -0.17176756894939   -1.65780133466527    1.34139930269701
H           1.46294167030821   -1.37248341865488    0.89689343435937
