    26
        -50.46983303  Gyration_radius:  2.43237527264 Dipole_moment: 4.339
 S          -1.34031029813811    0.76383716486969    1.36140057106916
O          -1.57806455544831    1.05257269648618   -0.06256752461405
O          -1.72189172288695   -0.59381865527475    1.68673057932821
O          -0.00745082264200    1.13700365144916    1.76106020738463
O          -2.33733330212997    1.70006712437250    2.16037008940531
H          -3.13323644813308    1.17870314571037    2.17081443503940
O           2.14972234593378    1.02986332826703    0.19338000944027
H           1.51167618608213    1.19526503070773    0.91548466588834
H           2.10816708428791    0.05340416086617    0.06278027919849
O          -1.22701517541643   -1.41336881254575   -0.92443630946746
H          -1.45405546734696   -0.50228220799756   -0.64004741066595
H          -1.63566327176575   -1.97642195260174   -0.26142488254289
O           0.55603530832833   -0.77959315503311   -2.93607601807232
H           1.30543975474169   -1.21231067991265   -2.51277288292182
H          -0.23001108630904   -1.16535535578903   -2.51903867129358
O           0.68277466709653   -1.50607746853627    2.45425893916726
H           1.03326375234022   -0.67597440985948    2.78855633617406
H          -0.25131774930150   -1.30856901167442    2.25426115322067
O           1.43128050678934   -1.52225077965146   -0.13165070848204
H           1.35190804680076   -1.70614662079949    0.82724038009088
H           0.50925003421233   -1.54358916518410   -0.44365642093821
N           0.45334925713158    1.58597718325611   -1.66891356316942
H           0.47492670037503    2.46479837480596   -2.17256881330876
H           0.48831037033377    0.75940128481540   -2.31746453662411
H           1.27439765911817    1.48234866706039   -0.96689733948045
H          -0.41415177404402    1.50251645219043   -1.07882254381460
