    26
        -50.47341705  Gyration_radius:  2.39114958158 Dipole_moment: 5.189
 S          -0.84713660944325   -1.16702282534763   -0.71352383171324
O          -0.70300562004978   -1.15956872255585    0.75403814446097
O          -0.87263805801307    0.21487950913567   -1.20015662088685
O           0.16336765526353   -1.95526280085568   -1.36128348644805
O          -2.23726905859695   -1.79140089868535   -1.03401638754335
H          -2.86296672344143   -1.24152785670664   -0.52732494032653
O           1.58861003597133    0.40944201998627   -2.21833211267659
H           0.64955430113613    0.42874863541418   -1.95424321058512
H           1.73665495772540   -0.49815788963889   -2.49865623987130
O           2.71928002088982    0.59566574953913    0.18147151843640
H           2.44083866826759    0.67537026417957   -0.76185679455732
H           2.74717545465030   -0.37255686439290    0.33570900036288
O          -1.41487102355006    2.30950889949766    0.20792117124034
H          -1.42201927654733    3.09056362830325   -0.34751436159309
H          -1.26577161107505    1.54270980090858   -0.40378355035225
O           2.09195386235740   -1.99925063836819    0.47783662761926
H           1.59383680994812   -2.28992032789716    1.24395816085801
H           1.46725469819060   -2.08159299172525   -0.27053361207084
O          -3.13319836764307   -0.05323768166076    0.79682917866006
H          -2.94225961211779    0.88312777833943    0.66836506475756
H          -2.30672371994448   -0.45401631691856    1.11235935383665
N           0.56377001056429    1.00469398990755    1.52952703801792
H          -0.05552407398891    1.74760333140762    1.15328955153332
H           1.51424726478649    0.95568362078397    0.98727804780027
H           0.70993392968313    1.11709231835712    2.52680432112818
H           0.07690608499212    0.08842623899582    1.31583795991191
