    26
        -50.46061521  Gyration_radius:  2.54393773839 Dipole_moment: 5.966
 S          -0.13106839680205   -0.38014866861623   -0.29760395310537
O          -0.68943029056520    0.40974261778480    0.82321054850542
O           0.84353938012295    0.56051302570461   -1.05302583651770
O           0.70750882616926   -1.45057240555052    0.22760704300468
O          -1.16474443940519   -0.82769482947234   -1.19531255823050
O          -1.31183619542704   -0.05755478823268   -3.73810964115730
H          -1.33273656750612   -0.44418519662704   -2.83795653565854
H          -0.72062077869859   -0.60891354828604   -4.25209076928118
O          -2.60849812684590    1.55334180139822   -0.65207423947333
H          -2.94973438676753    0.77390339048819   -1.10033841136002
H          -2.00118708461848    1.20555846209800    0.02552515061151
O           2.74691801719716    0.05221511842467    0.88231547896212
H           2.79633514828952    0.70499376109315    0.17797149173190
H           2.12233760857112   -0.63096328078539    0.54155382985588
O          -0.63016331152431    2.13965290559156   -2.33853081292094
H          -1.42125572775291    2.16770656916789   -1.75184367690127
H           0.28337283558592    1.25099547776357   -1.58036610663355
H          -0.88673096609214    1.54602818102199   -3.07280818353496
O           0.97090490941091    0.49153354796384    2.65603596326362
H           0.85134543838915   -0.55522903753879    2.95556829760476
H           1.81074068546024    0.46737116835529    2.07983412348742
H           0.21007752811593    0.56997135962353    1.93469666703120
N           0.66309505794243   -1.98526129313193    2.95704991789670
H           0.61672488716325   -2.09238056522349    1.93707533074590
H          -0.20313430754797   -2.31599067708270    3.36093153514740
H           1.42824025714199   -2.54463308593344    3.31068536692221
