    26
        -50.46802922  Gyration_radius:  2.56345971567 Dipole_moment: 2.893
 S           0.82219186863755   -0.59092197709208   -1.82205822048736
O           0.05644260989578   -1.77421851922998   -2.11742302972580
O           0.08768278919803    0.65467214963102   -1.97469979469379
O           1.47030426179166   -0.65431987956588   -0.50955674469652
O           1.99556113038049   -0.53636721885120   -2.88940427955016
H           2.12012050087533   -1.45245950930227   -3.11689427313526
O           1.19365840940751    2.42637856884810    1.92554984779646
H           1.97007213447202    2.53914735542519    2.47523126959722
H           1.52325102045406    2.39458256227858    0.99377391370443
O          -1.21754531809370   -2.08063626051875    2.35194705564968
H          -1.42327925246495   -2.23399183344098    1.39956912113668
H          -1.98292406091462   -2.38121937129495    2.84267369089452
O           2.04096961872106    1.94130285268656   -0.55514792344935
H           2.13667382467899    0.97570918653528   -0.47205542205122
H           1.36480764193262    2.02506040813809   -1.23944139825197
O          -1.84927162156626   -2.03179192722468   -0.23983886809610
H          -2.25263908895873   -1.16731144559225   -0.38582604563830
H          -1.15870762772943   -2.10593247115848   -0.92609736194855
O          -2.06704457521706    0.79090841119218   -0.53850150882362
H          -2.57222038536839    1.56983605712652   -0.77668632664881
H          -1.30934394587270    0.74658927975985   -1.17584035488273
N          -0.19433085332230    0.19472951436323    1.37714024199175
H           0.48813539382559   -0.22156130833542    0.69208167076969
H          -1.00738618613236    0.52258098936967    0.82502130964458
H          -0.50468912648715   -0.55841704543548    2.02098189266997
H           0.26951082820193    1.00765145175084    1.83550154816606
