    26
        -50.46936557  Gyration_radius:  2.4300870177 Dipole_moment: 1.251
 S          -0.04538345685304   -1.56661798649704    1.02319462987834
O          -1.18598263924004   -0.67890882193380    1.21080099616915
O          -0.01447529787346   -2.07681751683083   -0.34403420238563
O           1.20454731135559   -0.98327546900191    1.44093851177428
O          -0.29531593202270   -2.81389267060673    1.95940814863767
H          -1.13421946530018   -3.13902983140598    1.64994667424507
O           2.13573083782948   -0.76746216683421   -1.20178952985636
H           1.36941289038242   -1.32477785242510   -0.96281958432114
H           2.70881899540712   -0.81513336625317   -0.43230941037569
O           1.25438897351529    1.63970888695867    1.63118774435404
H           1.21213074261303    0.65518457248535    1.61561962004712
H           1.88266877415429    1.87000828691306    2.31713437664118
O          -1.24232688505059   -1.27183016789542   -2.58276476607180
H          -0.86141746598401   -1.71227766343214   -1.79567088781223
H          -0.55111222476105   -1.29190795463220   -3.24807729685664
O          -1.55260992287800    2.11863245125550    1.54610957670906
H          -0.59715173464032    2.23777757843812    1.62960795802781
H          -1.70061858555301    1.19613572413435    1.78173808294579
O           1.12790731795711    1.71644673739969   -1.09536940368091
H           1.29313255001728    1.91091654743767   -0.15629297718809
H           1.59063431111998    0.86650259861193   -1.27098917729807
N          -1.34179281524642    0.85796371852320   -0.95926463401587
H          -1.50993233500298    0.20625819125468   -1.75422835260997
H          -0.36909137436985    1.30155113922290   -1.06435809099088
H          -2.04719243370108    1.58296017300602   -0.85816959146081
H          -1.33075013586461    0.28188485216689   -0.07954841447610
