    26
        -50.46310789  Gyration_radius:  2.62908257776 Dipole_moment: 4.022
 S          -1.50436358621962   -0.77259813389640   -1.56509794873007
O          -2.19862823123265   -1.79600871520296   -0.80981017131024
O          -1.51327283559696    0.50829405782313   -0.83538854278173
O          -0.17667633854710   -1.12266448188621   -1.99324010499156
O          -2.37701051325923   -0.52732970267519   -2.86838552375453
H          -3.25888455770994   -0.67276592435278   -2.54079009680502
O           1.72746546798199   -1.25421874802461   -0.16420420832241
H           2.19830683757661   -0.41361020995104   -0.28890031910886
H           1.13673401991412   -1.34039919932660   -0.94354296911404
O           1.47783979944796    1.61581962389230    2.34753075245299
H           1.88989599963383    1.63439279373135    1.46241637467691
H           2.17769266494752    1.40710062845490    2.96772171561536
O           2.47180402612523    1.43000616374850   -0.20656289457409
H           1.67909935918318    1.71412811383142   -0.73272860303521
H           3.23214190033303    1.80284113880701   -0.65455462757258
O          -1.96766474535740   -2.25629234517418    1.78196464515884
H          -1.73137696628698   -3.18255354530583    1.85256675475972
H          -2.17153249190116   -2.10997577269819    0.82926194863720
O           0.33904196161359    2.21978046424500   -1.53050112588173
H          -0.34938721689289    1.52863615338908   -1.38505501360877
H          -0.05986584049157    3.04385239485381   -1.24433079589022
N          -0.20909088472727   -0.28447454971768    1.33583665919016
H          -0.78056595116745    0.14865222353505    0.57231727865534
H           0.59827943101604   -0.77957938084607    0.84838570770789
H           0.18551809091859    0.44180208168526    1.95553856997225
H          -0.81549940927284   -0.98283509896613    1.80955254866117
