    26
        -50.46905843  Gyration_radius:  2.45209729944 Dipole_moment: 2.351
 S          -0.57752699080665    1.37716519489770   -0.96781583187484
O           0.07177028282801    2.57198608061442   -0.49329527804382
O           0.33654315372683    0.33504232022678   -1.40644167616257
O          -1.57726365528480    0.83779363307838   -0.05142823594145
O          -1.38406633742982    1.82224524414596   -2.26461711049534
H          -1.13361708015470    2.73513297496032   -2.36184797165966
O          -0.25770693557897   -2.19214331684765   -2.02226173038577
H           0.63239272285447   -2.55417056433513   -1.96782063989368
H          -0.12937181603472   -1.22194326934449   -2.03540162212849
O          -1.29846766570825    2.35160279642845    2.17213306318423
H          -1.57146174509825    1.81127989725762    1.40999140037499
H          -1.00450939951090    3.18517226308423    1.79672947656474
O           1.04721436735367    1.09744366951341    1.55946033247001
H           0.93299604895099    1.59642506209704    0.73732414763330
H           0.34330433740068    1.44238937220527    2.13759924907524
O           1.14766127831641   -1.57005439823961    1.60841889407444
H           1.17321057495090   -0.59963917347841    1.76002764203566
H           1.71640578114804   -1.69522558094204    0.82337310006651
O           2.36099755990338   -1.32369811464593   -0.80034484283047
H           1.69118988151353   -0.64925860113436   -1.02890629829301
H           3.19680054324396   -0.85762260449434   -0.74934225950971
N          -1.16921887493327   -1.72157395438402    0.44129294909442
H          -0.94509700505710   -2.11209543122038   -0.50762286445596
H          -1.92371364856653   -2.22182744615455    0.89718832981851
H          -0.25658239916373   -1.73455665910253    1.02242013395718
H          -1.42188299896055   -0.70986937414951    0.29118763354031
