    26
        -50.46153796  Gyration_radius:  2.72912520744 Dipole_moment: 1.581
 S          -0.34474751573977   -0.53656228599765   -2.35506320285853
O          -1.09703008137776   -1.13045157787617   -1.26088255364768
O           0.21494252124267    0.75743646960390   -1.99435691939695
O           0.61684141806055   -1.42115486385997   -2.96725470196444
O          -1.44904325743194   -0.23257999540164   -3.47440235498474
H          -0.94024577507417   -0.20080569088689   -4.27857631174440
O           0.97115103390354    2.36276494719773    2.54766870821355
H           0.94535833839858    1.49595633041361    3.00175823722037
H           1.89557219244629    2.60848983643351    2.49087438549223
O           0.79150651666134   -0.20540479158665    3.43326718396501
H           0.14495204250684   -0.49303716477565    4.07938516481402
H           0.67238541765085   -0.77433028866842    2.65409850512552
O           2.18364558030014   -1.50523331940657   -0.83680089646429
H           1.64581660468397   -1.42804964345714   -1.65403507888423
H           2.78073569441905   -2.24137679129618   -0.98617933963256
O           0.26510143130847   -1.45344448859769    1.01368264711760
H           1.10124878838254   -1.50959410851907    0.50173157254325
H          -0.41149027309843   -1.62528859246031    0.33318688260011
O          -2.80768291543180    0.75448532695975   -0.53254275969584
H          -2.30943525620134   -0.03752948822204   -0.82808137129581
H          -3.12769878397214    1.16908464374105   -1.33494804587607
N          -0.34591428645604    1.15964628167266    0.50829344212279
H           0.01504293095185    1.16649966619631   -0.48538119999256
H          -1.37105399187803    1.26733365074254    0.42403756855182
H          -0.13822302955824    0.19925064741161    0.86232357511133
H           0.09826467532241    1.85389530063324    1.13819686356449
