    26
        -50.46989183  Gyration_radius:  2.48704588831 Dipole_moment: 1.130
 S          -0.18375029110486   -1.37474641281738   -1.19728119945161
O          -1.46669711995672   -0.91338687676892   -0.68832568056960
O           0.06799935967063   -0.94367827372703   -2.55399679807830
O           0.90063203553282   -1.06717634059513   -0.27824161009509
O          -0.24902967434489   -2.96157158715769   -1.22930923049860
H          -0.77717112618014   -3.16057260057668   -1.99607964130473
O           2.40204915135100    1.46916288103315   -0.45865555653482
H           2.41027245901589    0.50591003902643   -0.48727672718717
H           1.82621333921398    1.72970036280936   -1.19511242931666
O          -0.47059266771274   -0.10044004028346    3.50874242554117
H          -0.12438021185300   -0.48785495771502    4.31297725967821
H          -0.73384114408069   -0.84944253786978    2.92784400197909
O           0.41209993408945    1.63985158679509   -2.41002270329281
H           0.47411875037246    1.99078797546133   -3.30030287957478
H           0.30170005935578    0.66254183569122   -2.50874676305781
O          -0.86558618248615   -2.01991727313986    1.66092546058491
H          -0.00902822852969   -2.27182385139919    1.30193470728301
H          -1.33475198716737   -1.63492087472525    0.89874930396156
O          -1.54638240342423    1.76327531501007   -0.47243685712939
H          -1.78011955082803    0.82280912952479   -0.58763443557635
H          -0.97075525436412    1.96919745774358   -1.22788865338780
N           0.34586188021806    1.06840489330382    1.22936928927099
H           0.52107525275426    0.15427686702369    0.74491139978501
H           1.19614956335644    1.62289340701174    1.06312027576491
H          -0.47369387131124    1.50438471386682    0.71766987349514
H           0.12760791844105    0.88233514246743    2.22506715775693
