    26
        -50.46882149  Gyration_radius:  2.47797791625 Dipole_moment: 4.087
 S           1.79721295566686    0.07173500181578   -1.25242252088718
O           0.63723377295750    0.95631523835756   -1.22376242984193
O           2.72285383326280    0.32863535964511   -0.17007746737571
O           1.39025549927249   -1.31687756798502   -1.36462972887198
O           2.59817106116905    0.42045089224466   -2.57570068486930
H           3.33755452461718    0.89067754207569   -2.20623153541878
O          -1.89334800446376    0.45009577940452   -1.63391113954811
H          -2.19769481726326    0.94948132813572   -2.39245177945773
H          -0.94169596510409    0.69108689445618   -1.50901030349267
O           1.45295812940514   -0.15519264284301    2.05424869463900
H           2.09847160460194   -0.43395930906279    2.70552095559988
H           1.95495109347417   -0.00469045727616    1.21717056456784
O          -1.06620297272749   -1.22174672877097    1.86650409835259
H          -0.16387098650043   -0.89413122184646    2.03651299866286
H          -1.62079325636963   -0.40398011558016    1.75488775879618
O          -2.27611792385232    0.99852175472920    1.14130507613268
H          -1.49744827039627    1.59088806241299    1.23865054885220
H          -2.38495754835101    0.88783156343381    0.18722784605438
O           0.13335654868902    2.17933631450797    1.14777067780465
H           0.37348181483501    1.88679479529284    0.25109322260492
H           0.62279188623497    1.59249575353544    1.73847096991693
N          -1.03174270943307   -1.91916768414775   -0.61471618782554
H          -1.61565582643755   -1.21154006976602   -1.08725383417784
H          -0.03358955140922   -1.75142667537378   -0.93503169340227
H          -1.06369990139594   -1.72008686075191    0.46094010581563
H          -1.33247499058951   -2.86154693659204   -0.83510421264087
