    26
        -50.46061500  Gyration_radius:  2.54366734621 Dipole_moment: 5.986
 S          -0.02017214837220    0.40296609721725    0.29288649359513
O           0.25871103856547   -0.85413481225894    1.15713754487858
O           1.29108330411019    0.99033089853524    0.04606385329341
O          -0.59450850381048   -0.08472052382962   -0.98146217780766
O          -0.93471520163503    1.27354608188015    0.98585008381277
O          -3.09525054976302   -0.24898891886198   -0.03947112519283
H          -2.26257501383407   -0.21503550812930   -0.54385782476355
H          -3.16051778166626    0.61086148472499    0.38627006119278
O           2.57529029140452   -1.26462230658196   -0.29077014749297
H           2.17958392504456   -1.86137963898337    0.35104721834264
H           2.24580459217705   -0.37145799099403   -0.03264074207070
O          -1.95176419487795    0.69617187867493    3.37563901084145
H          -1.30245721498703    0.93167830447703    4.03962130857452
H          -1.60731289297988    1.03625545981222    2.52357093358549
O           1.23397042105412   -0.91266817706628   -2.42926893053260
H           1.84903782704657   -1.24895790909686   -1.69041297827685
H           0.37290531408165   -0.63976931243624   -1.89188232909605
H           1.64622329228792    0.07801523528411   -2.65681152159372
O          -1.99649184110811   -1.60326938797296    1.97547841729620
H          -2.12884124746117   -0.94160993505413    2.68424376872160
H          -2.56887881289958   -1.29470062207018    1.23512996493552
H          -0.64611922125870   -1.21939703073464    1.49883168512320
N           2.09430452959802    1.44402094946015   -2.57604432147263
H           1.56959419135270    2.11349144094322   -3.12318394131463
H           3.08334451520899    1.60665869719872   -2.71302317384885
H           1.86975138271762    1.57671555587609   -1.58294112072171
