    26
        -50.47097816  Gyration_radius:  2.46972749124 Dipole_moment: 3.307
 S          -0.33077523880046   -1.55563294797029   -0.45588913164441
O           0.40643302936579   -0.79925770701427   -1.45973939463162
O          -0.06706461556481   -1.00390087613620    0.88537269161081
O          -1.73906824450615   -1.63132873842045   -0.73628086471978
O           0.24612826158530   -3.01425853689905   -0.44614331740692
H           1.15872178175247   -2.91191011153844   -0.13355284574696
O           2.32759576310112   -1.98373846174734    1.00590932431547
H           2.54698634135693   -2.39710373122896    1.84316639140512
H           1.47022834787321   -1.51762288471910    1.13648805009805
O           1.53383371649610    2.70601321968144    0.59265546876949
H           1.73127418581255    3.38119930034554   -0.05855311369311
H           1.98397607932192    1.88546386875601    0.26692477777118
O          -1.45598307367318    0.99899353089868   -1.96474987914095
H          -2.24781548292057    0.45363123877747   -1.94113877651506
H          -0.71348785909343    0.36065016157125   -2.00698336324739
O          -3.17331023582651    0.12570228982835    0.72299412246313
H          -2.67653975912158   -0.55442784817048    0.22813314785527
H          -3.98312563086813   -0.30357023221920    1.00177822414180
O           2.52196839168036    0.48465435143776   -0.45346713657191
H           1.78153758064811    0.07013353926551   -0.94079625285564
H           2.87554457192091   -0.22427969448251    0.09518549065644
N          -0.84414318153727    1.51480720388589    0.57951600951974
H          -0.00362796486061    2.13826387586019    0.68082293275620
H          -1.15561015820308    1.47333562341441   -0.42942379645066
H          -0.55438044776775    0.53560808353378    0.82745565261265
H          -1.63929617027912    1.76857547070161    1.16031560889113
