    26
        -50.47172670  Gyration_radius:  2.52489494149 Dipole_moment: 1.034
 S          -0.76014976148456   -0.61018925434221   -1.74734630495262
O          -1.86729631525182   -0.72357493333270   -0.80859086520326
O          -0.78448108724609    0.63365474623773   -2.48852421595697
O           0.51419866008613   -0.87231936575308   -1.09810263032018
O          -0.95016065274131   -1.75512953667541   -2.82387653738399
H          -1.49649314345300   -1.31882404863426   -3.46871228061592
O           2.35629922081768    1.02296355613167   -0.37562000289360
H           1.89171144099110    0.26942357048250   -0.77557393722544
H           1.73224623354762    1.75943324868399   -0.46557727729934
O           2.69948617456435    0.19360797301225    2.12979935673162
H           3.51755632046828   -0.30345659333978    2.16195544742583
H           2.66848516342552    0.60962462654155    1.23272324191134
O           0.08099299822378    2.52570589668253   -0.92060856884068
H          -0.03456918393144    3.37342880621235   -1.35308932043475
H          -0.22314197678095    1.84184701701969   -1.56785472961108
O          -1.73985574948027   -2.47616406169388    1.22950058389634
H          -2.62704956568727   -2.76142305616635    1.45040810335763
H          -1.82766910334227   -1.91008928415495    0.43546929060612
O          -1.46690687419973    1.27069541668113    0.96353708715947
H          -0.95142566384953    1.90639132824969    0.43815132689118
H          -1.84648070438115    0.64806338761833    0.31622082099546
N           0.23618092098959   -0.67566986306359    1.54146916474210
H          -0.39808829048301    0.16854305657416    1.54999715678662
H          -0.28245459915569   -1.48098696598931    1.90827202708421
H           0.41563556178496   -0.86515410517373    0.52570277369115
H           1.14342998655481   -0.47040158178981    2.01027028942327
