    26
        -50.46483769  Gyration_radius:  2.66797659299 Dipole_moment: 1.999
 S           1.74072585970695   -0.90730195125931    1.26320443040219
O           0.97913152847177   -0.07892250497488    2.18040301352378
O           0.96092445044174   -2.02494596625423    0.75358801370938
O           2.36142335615690   -0.12966928194596    0.20155801837553
O           2.93573007239913   -1.54082560622080    2.08967472039586
H           2.48374544224238   -2.16899857803556    2.64385598232191
O           1.60942795175891    0.16884648490821   -2.37816182139107
H           1.60393214765341    1.13073042958677   -2.36107552513243
H           2.09897847613868   -0.08950848490793   -1.57488295966307
O          -3.23871638604453    0.34480451640046    0.87166873100227
H          -3.23525046667141   -0.12588517992749    1.70704272341181
H          -2.41710216958588    0.86493336744357    0.85581021285882
O          -0.67013003806047    1.31958618796360    0.74173590293334
H          -0.13105795484110    0.83370156128143    1.41463562279959
H          -0.03795564186388    1.95330102639077    0.35155080315850
O           1.60698908290105    2.36601276215763   -0.25439573201199
H           2.11725309613925    2.98200655914533    0.27284707765458
H           1.96210775307614    1.47218895715420   -0.04302751957101
O          -3.16045351824472   -1.20587820041839   -1.34666548486860
H          -3.31709169329197   -0.68221059694767   -0.53187443717761
H          -3.77579229795297   -0.87721443969935   -2.00286573954870
N          -0.51001362801052   -0.73348113140518   -0.99507620799955
H          -0.67441583879289    0.11702249056703   -0.40158845863393
H          -0.01352605181176   -1.42036795067266   -0.37155224647683
H          -1.42497963851991   -1.09312271604695   -1.32308223935635
H           0.14611610661141   -0.47480175427809   -1.76332687071667
