    26
        -50.47132793  Gyration_radius:  2.39792635989 Dipole_moment: 2.040
 S           1.17830434800782    0.63339572457157    1.07449157085824
O           1.96341176864715    1.70609379525500    0.50905341762187
O          -0.23746793278067    0.95775854262598    1.15239613720551
O           1.39896447082613   -0.65225659330309    0.43430411405060
O           1.69561855559545    0.48470643038183    2.57554312104825
H           2.12002778480174    1.32599337878088    2.70603035237425
O           1.97673461792934    0.81104014255264   -1.94519255035881
H           2.02706432202269    1.30026031030944   -1.09292962924957
H           2.30567454757971   -0.06614711748910   -1.72747029484482
O           0.13009795801806   -1.87693331594998    2.49719061694035
H           0.66703794820364   -1.54721551979829    1.75916207469336
H           0.47171344719136   -1.43330085596128    3.27514953080564
O          -0.55313086245160   -1.82593909464010   -1.05002359717247
H           0.26631624875489   -1.61544484352265   -0.56640922415574
H          -1.25794222560767   -1.68749089857278   -0.37065252298213
O          -2.03428434465576   -1.03399048628453    1.00242457990339
H          -1.45641139659407   -0.25383413502109    1.11915673614351
H          -1.69377519886963   -1.65247082744104    1.66408403238832
O          -1.99020442142017    1.75908328291755   -0.65686168348370
H          -1.31045152684745    1.66545846029187    0.04402914864685
H          -2.74248446868889    1.25243626320132   -0.33738807221211
N          -0.59738877575967    0.36011659254086   -2.44554213380011
H           0.41349193811029    0.65363779725343   -2.35663182059533
H          -0.89284922886022    0.34549589990958   -3.41499909729949
H          -0.65277484350889   -0.61578994040133   -1.98359456224935
H          -1.19529273964059    1.00533697776915   -1.86532024428887
