    26
        -50.47294877  Gyration_radius:  2.44380454805 Dipole_moment: 1.545
 S           0.05840399516706   -1.15599265245767   -1.66943862098593
O           1.36875096053410   -1.47740608278740   -1.14075556811794
O          -1.01279135141021   -1.72304929473018   -0.86486570657962
O          -0.12973072553330    0.26279413331247   -1.91853289330309
O          -0.02861893788563   -1.85127370567216   -3.08963781976739
H           0.25704153733105   -2.73296559673362   -2.87859344696168
O           1.95310408602531   -0.79812716497381    1.29065810647977
H           1.76451686891357   -1.02569449931817    0.34309721300853
H           2.86480983977292   -1.05141043369806    1.44243753595493
O           1.06011624919158    1.78839580577463    1.40782012840718
H           1.26640114417239    2.07833894559929    0.49374543148035
H           1.49978700438219    0.92154092877691    1.48824209136481
O           1.51563686325365    2.20446664976887   -1.19694731402656
H           1.23067909797131    2.95216618921261   -1.72432478396872
H           0.99691326339116    1.43597926322985   -1.51551706087148
O          -0.63123140930491   -1.62952291585985    1.75941586412722
H          -0.80838080828182   -1.81746036909256    0.81188430550677
H           0.33109852229336   -1.51184051742073    1.81473136651941
O          -2.46675991837230    0.55909482043976   -0.78711858443794
H          -1.65684901172883    0.65171623261122   -1.33271440143247
H          -2.57310837485198   -0.40095753889745   -0.75268399363273
N          -1.39165164825378    0.88514624608797    1.62013421767134
H          -1.96009254847945    1.30187154037982    2.34814611234310
H          -1.88939721506969    0.89709246445678    0.68616668718711
H          -0.44396964662545    1.37509121285227    1.53837588358955
H          -1.17467782659926   -0.13799367086932    1.82627527044170
