    26
        -50.46293665  Gyration_radius:  2.47095352134 Dipole_moment: 1.874
 S           0.03925984002132   -0.79040979934001   -1.64775140830533
O          -0.62292862840432   -2.06831987611443   -1.73430268491690
O          -0.86960707764725    0.34564521906536   -1.59484015280672
O           1.02889032995488   -0.71071594079139   -0.57955212744870
O           0.85589382489169   -0.64176919975024   -3.00438979590240
H           0.43993768905263   -1.29729597999445   -3.55370328695431
O          -1.60081026372369    1.25343553300574    0.84514970769265
H          -1.56589246605122    0.47586000054874    1.43581093320031
H          -1.61346957440301    0.89923143714454   -0.06316069765839
O           1.56526607964605   -0.22989679922030    2.20732360799707
H           0.66855744262674   -0.41616916014628    2.51636950362301
H           1.62176382957787   -0.64825767176652    1.34090669792181
O           0.30898085354403    2.69755021633693   -2.03552509518435
H          -0.34859168932611    3.31675771966005   -2.35580129849138
H          -0.13144928655780    1.82070195966899   -2.01458950306820
O          -0.37106484129295   -2.91017460548220    0.74426556389465
H          -0.55741080261229   -2.67616288464466   -0.19037739929102
H           0.58545761233511   -2.96416807644381    0.80477460172927
O          -1.17678747833672   -0.97219873065088    2.34401886744475
H          -1.81174313142826   -1.33630355750811    2.96210423586855
H          -0.92420064342275   -1.71413334536797    1.73737005208672
N           0.92439749284527    1.74705358499109    0.38188932040992
H           1.08782234901699    0.78809711492721   -0.03031197613134
H           0.97073030706884    2.42985083315263   -0.39226208610537
H          -0.08541901380892    1.70285844723505    0.73409640611381
H           1.58241724643579    1.89893357148089    1.14248801428307
