    26
        -50.47411094  Gyration_radius:  2.41829829896 Dipole_moment: 2.953
 S           0.89452968297533   -1.20539092290566   -0.71601741118089
O           0.34999687774937   -1.54772209813497    0.60473387299791
O           0.00249898023066   -0.22846256379433   -1.37173170098694
O           2.24797604917649   -0.72639078197858   -0.64500557553417
O           0.85874320455709   -2.48887554725803   -1.58378387539021
H          -0.10060877643691   -2.69784885984962   -1.65484491315538
O          -1.77571530893833   -2.69086294956099   -1.79461497289598
H          -2.14439598902081   -2.06757761551116   -1.13964796919230
H          -1.97165745328650   -2.32204268993241   -2.65882811630316
O          -2.12036602551926   -0.65509598352786    0.04378186226148
H          -1.64894135063865   -1.20391666771594    0.68495765597471
H          -1.39871636992951   -0.38335398392964   -0.57395965283378
O           2.50070004612794    1.58370614769723    0.62931176665211
H           2.62801020609562    0.75168284554183    0.12282242884895
H           1.88817306669866    2.10991854874033    0.08919206630035
O          -1.45159763336749    1.72718619494245    1.28835370294801
H          -0.98911699987027    2.15736288040339    0.54848377186170
H          -1.94355553384318    0.98273261596375    0.89366584830204
O           0.25556846943437    2.30141815342132   -0.81606481984546
H           0.17900010315991    2.80870574751989   -1.62530214809578
H           0.19849405731902    1.34881387327784   -1.08252291477581
N           0.71009590847752    0.48997882136459    2.18967655660948
H           0.61235661190428   -0.42403614954464    1.65801289828995
H           1.52015777402938    1.00620859914325    1.71849478645261
H          -0.17932736164885    1.03992732335701    2.01392015291085
H           0.87769776456261    0.33393507227089    3.17691671977606
