    26
        -50.47168432  Gyration_radius:  2.41947035568 Dipole_moment: 4.578
 S           1.09400519558537   -1.50888195850301    0.20116499100138
O           2.14815986978021   -0.58115303043192   -0.17416965776679
O           0.59471043237205   -1.24070343779248    1.54428572125275
O           0.01868723325518   -1.59201154163017   -0.76244612526092
O           1.77150721437125   -2.93586187296081    0.23750787113026
H           2.62638128443425   -2.73829103268357    0.60423752475917
O           1.98119198237685    1.54162802911275   -1.89580800054336
H           2.15619419544941    2.24860894697833   -1.27016087754799
H           2.18151211863765    0.71739208274219   -1.42042749150377
O           1.44784813869674    1.48967265416585    1.33743108293354
H           1.35948815338403    1.10516317239274    2.21179809807314
H           1.76210268054308    0.75431414727224    0.77368556273642
O          -1.05299302671537    2.03281220613661    0.47036479016000
H          -0.98301940532010    1.73174967686622   -0.46901444451765
H          -0.12972604385624    2.04296090260101    0.79767160530094
O          -0.62792916618752    0.80479247757497   -1.83930482490656
H          -0.37819254724416   -0.08801803586641   -1.53933705891566
H           0.21871917142051    1.20280205220763   -2.11763178270315
O          -2.65009886236448   -1.36235568722526   -0.91739961997646
H          -1.75266411330749   -1.73356767951763   -0.99484923577748
H          -2.67978261102725   -0.65124888294156   -1.56566788664638
N          -1.84420058889756   -0.25606790149534    1.38297907022423
H          -1.61801483203999    0.76453603123293    1.09114999626612
H          -0.91224311550349   -0.72870951211298    1.52636784256165
H          -2.41238857863725   -0.30032744386103    2.22118422251093
H          -2.31925478920231   -0.71923438225380    0.56638866715816
