    26
        -50.46408422  Gyration_radius:  2.5101644053 Dipole_moment: 0.769
 S           0.75417458471752   -0.58442494172052   -1.51467398665747
O          -0.06648430394561    0.61767442771623   -1.57969865281909
O           2.10734628616894   -0.38349627706439   -1.95821966247478
O           0.62347219710027   -1.24479904748365   -0.22808210828063
O           0.09747519059721   -1.60825402506843   -2.55119097768221
H           0.48777980096754   -1.33154886884043   -3.37309726557772
O           3.20891476031505    0.73744256000925    0.18834290286627
H           2.86398359651659    0.22946072375305   -0.57384989171292
H           3.96406638246974    1.22764420871092   -0.14330515655886
O          -0.17808856639100    1.12674264928828    2.93343300970600
H           0.58722895765971    0.81084561077575    3.41657638207788
H           0.18244507921080    1.55481768965223    2.11548020117259
O           0.82186268831138    1.92852612393564    0.61663060197593
H           0.45038383722410    1.55387433813062   -0.20005132561471
H           1.74532041630389    1.60999139116201    0.62117193749734
O          -1.63938399553435   -2.79328157018901   -0.37434604002051
H          -1.88301830195285   -2.99032960700965   -1.27968063828230
H          -0.73351168688871   -2.45102275853252   -0.42095507054282
O          -2.40793056096493    1.23960891583111   -0.52887486855634
H          -2.28333521657279    2.15293136126828   -0.26044155247384
H          -1.63043730433785    1.02103265251164   -1.08675536668019
N          -1.43544902336063   -0.49333151747630    1.26102409449820
H          -1.96905401631254   -1.33475111605481    1.46508457674463
H          -0.58600188890607   -0.78128036910205    0.70736178600046
H          -1.98701620680932    0.15500289844937    0.64363111250836
H          -1.09474270554430    0.03092453737026    2.10448596889365
