    26
        -50.46898031  Gyration_radius:  2.55771193451 Dipole_moment: 1.087
 S           0.31399684165208   -1.03393703345367   -1.69956587091275
O          -0.72108180918495   -1.99629479538520   -1.39010293382246
O          -0.23054907230123    0.21120140748974   -2.22548148072931
O           1.22181636314304   -0.79327778264010   -0.58912598078566
O           1.18766757444206   -1.67609578398337   -2.85482827098802
H           0.53161566726331   -2.15594743162655   -3.34916144124707
O           2.10290106844994    1.45779723898779    0.73337933134088
H           2.05396873845869    0.59996161693978    0.28283680236424
H           1.56774028995929    2.04746478831112    0.17335737368717
O           0.90333254780952    0.99174861674957    3.05205824891683
H           1.40029951603629    1.28473748524285    2.24595402882112
H           1.56409732583670    0.67796577237198    3.67028829636512
O           0.46861982624500    2.55482485984705   -1.18137932679981
H           0.85492562466499    3.12259560852666   -1.84928605563165
H           0.28710212716722    1.69623650603617   -1.62367386641916
O          -1.72829830843427   -2.84593485867466    0.92925286772523
H          -2.66336256577975   -2.99183803497569    0.77708803206038
H          -1.33912716850536   -2.67183352062281    0.04553775029691
O          -1.91728883131055    1.11820917529277   -0.33728893140491
H          -1.52384679518656    0.69741394424334   -1.12600137920303
H          -1.52360925775754    1.99806904226823   -0.31211118881629
N          -0.57095715971153   -0.46206282635506    1.35606768192755
H          -1.21840886073282    0.19586285248290    0.85649731510685
H          -1.06476281406541   -1.35575072601979    1.53933648720031
H           0.19977744323346   -0.66876937460550    0.67968680845484
H          -0.15656831139550   -0.00234676644880    2.19666571248839
