    26
        -50.47010212  Gyration_radius:  2.48363769082 Dipole_moment: 1.556
 S          -0.01066023704902   -1.44276601801759   -1.40886273416196
O          -0.16986342480522   -0.19707087130010   -2.14097319281627
O           1.32927354957843   -1.63775324181804   -0.90337315099263
O          -1.03054390929096   -1.58971097766822   -0.37373542346099
O          -0.26243943384975   -2.62177751533594   -2.43532479325165
H           0.63165425667516   -2.84134630774700   -2.67204117255212
O           2.55900904590051    0.42261622227954    0.27195060837820
H           2.23791446605049   -0.37378773992858   -0.19709536517367
H           2.01180191348740    1.14862282750632   -0.06769448860307
O           1.78124741040383   -0.30268964719856    2.64839042513297
H           2.19477838896260   -1.16025372562150    2.75976678684710
H           2.16691160192966    0.06677801535698    1.80422560428779
O           0.63504591373401    1.97680694265590   -0.96366187164426
H           0.85862397342225    2.61341867430619   -1.64435123806773
H           0.33837202447175    1.15761525974182   -1.43689633901867
O          -2.66898843358004    0.40377838461845   -1.09952117030401
H          -2.24816171933659   -0.42973430063818   -0.81862384821752
H          -2.21820025206967    0.61620753349922   -1.92273966803011
O          -1.48816890138244    1.93697664678622    0.75905473300690
H          -2.09633919378688    1.51318710114907    0.11096467710070
H          -0.69752460707120    2.16798505543356    0.23991367063073
N          -0.77252643500484   -0.29425279848427    1.92035364321879
H          -0.83778518118710   -0.91499495210031    1.07508846747602
H           0.22295059540484   -0.29266981080403    2.27923727726145
H          -1.05145862745925    0.68615178815465    1.57756632046381
H          -1.41492278414545   -0.61133655482520    2.63838225248944
