    26
        -50.46816011  Gyration_radius:  2.54210065352 Dipole_moment: 3.869
 S           0.54770423703823   -0.78762883627116   -1.73808290106339
O           1.12643895497479   -1.82487806768184   -0.89422399298551
O          -0.85294926701868   -1.04048067835146   -2.01000787181493
O           0.77687181230838    0.55238706274999   -1.22533927674379
O           1.32582925143797   -0.86217927403024   -3.11352846510054
H           1.35778050981958   -1.79593318962387   -3.29715429514551
O           2.17407490171075   -1.15311107940352    1.51137097464445
H           1.95516013090949   -1.43317651768518    0.60421381965022
H           1.50286054917785   -1.54469608082407    2.07443373313360
O          -0.02270432071449    2.35002283032501    2.38189700963235
H           0.84720717943989    2.07718775772703    1.98245601163562
H          -0.01746904651600    3.30750517357112    2.39823517090470
O           2.08319804402739    1.51647449640226    1.04170671321455
H           2.29336635338963    0.61906840110146    1.36533947134101
H           1.79466704779761    1.37439971557498    0.12807221620318
O          -0.93349796918623   -1.93860212007579    0.76156990759891
H          -0.15265870992852   -2.00738563103393    0.17162393678365
H          -1.66967707625738   -2.26364605791624    0.23796570190864
O          -2.96123104021582    0.46555898036259   -1.37396871004974
H          -2.25011907247355   -0.13919157309430   -1.67732742820158
H          -3.27662485170962    0.91672414727940   -2.15771273687827
N          -1.14879034369990    0.74071059665756    0.58755173024088
H          -2.04029085620267    0.92122415634131    0.10053823243809
H          -0.38799356394624    0.79963317086327   -0.13288875566951
H          -0.92532880334710    1.40418397533399    1.36718165039773
H          -1.14582405080177   -0.25417135829891    0.90607818392539
