    26
        -50.46794290  Gyration_radius:  2.464026225 Dipole_moment: 2.607
 S           0.19705401269420   -0.51593879050312   -1.75971632848912
O          -0.78833161864557    0.55601988964636   -1.70210855521322
O           1.54375450151750   -0.01418622541715   -1.90697324891546
O           0.03242896131432   -1.44375319123473   -0.65126160427142
O          -0.11727238475603   -1.36071526985996   -3.06126554282052
H           0.23980832153986   -0.81692703451181   -3.75583245444551
O           1.20829175514265    1.29279223190414    1.90969108744390
H           1.08764118823984    1.90023650165486    1.15169964970982
H           1.85446970516703    0.63108197903023    1.58243069482729
O           2.49189740355948   -0.61799257246032    0.52037801240660
H           2.05787232194772   -1.46536814289445    0.64372868661892
H           2.28725146998139   -0.36554298050901   -0.40059939100746
O           0.78381085252647    2.37339580271477   -0.53838969557109
H           0.17922908287421    1.76732142878741   -1.00760465740613
H           1.63247586608881    2.24047879641418   -0.96860369142706
O          -1.19769971885185   -2.87958473903753    1.41569221624203
H          -0.76302915640136   -2.60590699522517    0.59526762671961
H          -1.44235498261368   -3.79834024687370    1.30013436126507
O          -2.45894135733367    1.67166442479888    0.08256581133714
H          -2.04679605209131    1.27108947376292   -0.70650451676647
H          -2.09482188929117    2.55878692578274    0.13729350671503
N          -0.95538014224623   -0.07692682470139    1.45086029972127
H          -1.69679325470066    0.58441049927226    1.12502517072899
H          -0.61259135905058   -0.59539748645974    0.61094198041939
H          -0.11522165444194    0.47951889109348    1.82447836957636
H          -1.30675186209569   -0.77021636521578    2.10867219258856
