    26
        -50.46061530  Gyration_radius:  2.54382300094 Dipole_moment: 5.966
 S           0.07049209325839    0.30659309240332    0.38889232725060
O          -1.38460222136899    0.44794530355422   -0.12866544998666
O           0.80384224982443    1.39706348640002   -0.24205637037349
O           0.07775420391488    0.34659715600273    1.82864713685998
O           0.57131512461490   -0.98998946572745   -0.12110543228986
O          -0.49590307627091   -2.43111609246707    1.86665705832744
H          -0.01852165247469   -2.05888607841141    1.10344869186449
H          -0.21106988292073   -1.90166528912397    2.61729775261263
O          -0.37872617228786    1.25325147914664   -2.57173055115639
H          -1.29446828003915    1.04933507077945   -2.36086109471911
H           0.02188886193916    1.50975555372985   -1.70761554393675
O          -2.13632923201940    0.58625527362437    3.28454852753977
H          -2.36748802901345    1.51495947379181    3.32655142886289
H          -1.25653071387056    0.54248562311924    2.85525204974503
O           1.22692729240391   -0.72421088602680   -2.49227528273356
H           2.12479775668322   -0.13014835959955   -2.28844528879260
H           0.93843970785093   -0.97262645733729   -1.51227265783438
H           0.53982844412340   -0.01588261835475   -2.74485733997266
O          -2.74300651744170   -1.11950393640038    1.29104882363241
H          -1.98383604635143   -0.20048724399645    0.40910820998784
H          -2.06759366623986   -1.80575085790250    1.50037523326385
H          -2.80465017733238   -0.57651340268594    2.10266196204806
N           3.07172770454954    0.80872630004035   -1.74033660318598
H           3.86523425386704    0.40575552594209   -1.25991772522057
H           2.43477380826910    1.21674406460747   -1.04614736584670
H           3.39570419633827    1.54131329488116   -2.35820249596268
