    26
        -50.47392089  Gyration_radius:  2.4401298003 Dipole_moment: 2.168
 S           1.02840134744440   -0.60511507626170   -1.51980479818477
O           2.15316586632970    0.30143334560185   -1.52330835653211
O           0.99573027302762   -1.46294645818967   -0.34301165526693
O          -0.25819175902543    0.04223040205066   -1.72620954138403
O           1.23778386008402   -1.55658729164805   -2.76705840224652
H           2.18587614370025   -1.54467899750022   -2.82939022954023
O           2.06876534111846    2.02387498145317    0.44946098147806
H           2.15911590726706    1.38899720057909   -0.30007379208970
H           2.85298617446099    2.57433481707692    0.43272475450743
O          -0.53958783566913    2.44011101978830   -0.40636729456173
H           0.35761761730601    2.54498546892134   -0.05224763221097
H          -0.47538219274550    1.70433316168563   -1.03689178500161
O          -0.88507354680579   -2.84489153649601    0.91179411307990
H          -0.11385150740085   -2.51917878257186    0.40165918329533
H          -0.65638617929699   -2.70282321438401    1.83378393893898
O           0.70963915886815    0.05336127467797    1.87261113794850
H           1.26109751490245    0.82361827874266    1.67354062175259
H           0.85661661369879   -0.55075022693544    1.12195477464090
O          -1.72852867729832    1.11392459113205    1.56961565569613
H          -1.43397183413227    1.79613182551018    0.92086327846386
H          -0.88479544669883    0.73619199804576    1.90719360103615
N          -2.21018382668775   -0.76571895507399   -0.12892699347179
H          -1.88221894073012   -1.66498444770881    0.29941994080249
H          -2.14912577297598    0.02057660417635    0.62667829434676
H          -1.50949450158611   -0.49774927796555   -0.86491466622744
H          -3.14000378714856   -0.84868071470753   -0.52309511927504
