    26
        -50.46816033  Gyration_radius:  2.54208430157 Dipole_moment: 3.862
 S           0.76222360096938   -0.68165064600716   -1.70169447216916
O          -0.55922865165972   -1.16863444730459   -2.04271774496810
O           0.90805241512472    0.73523370442609   -2.00860706607133
O           1.13365839055937   -1.00579109990587   -0.33491123619389
O           1.80515206912726   -1.43492559683795   -2.62247431304352
H           1.69131073818207   -1.01662808508530   -3.47013731960122
O           2.04931734956369    0.54072917049559    1.79682677668323
H           1.95656884197154   -0.15276325234604    1.12697792379541
H           1.99223131229106    1.37156858833181    1.28626803304327
O          -0.09410204624705    0.41729527373246    3.31885245138603
H           0.77027334331968    0.54254775430580    2.84152098233562
H           0.10178105013048   -0.12551074650274    4.08304796575937
O           1.48464204989635    2.47718861457280   -0.01630458873839
H           0.63636293558687    2.92304518272147    0.03465032519201
H           1.42926212799254    1.89013957919345   -0.79190627780222
O          -2.40460972605778   -2.21583254054077   -0.42541751687688
H          -1.78108657815155   -1.87340278107296   -1.10169031292741
H          -2.43265361805285   -3.16519832592078   -0.54818293506980
O          -1.45784351002396    1.41540108386214   -1.03968181719350
H          -0.59248656295627    1.25127496659961   -1.47161428903185
H          -2.10311326145675    0.98402496279905   -1.60473824529921
N          -1.07872809033765   -0.34165369786357    0.96667789309340
H          -1.35170601029879    0.47835532000060    0.38003198447148
H          -1.77761527715250   -1.08732269663443    0.82513096898518
H          -0.17651127983497   -0.68471139496400    0.55468177655511
H          -0.91115160248714   -0.07277889005636    1.96541106369148
