    26
        -50.47392017  Gyration_radius:  2.44020432684 Dipole_moment: 2.188
 S           1.53472625296526   -1.14136296501314    0.27465686766220
O           1.69990686045558    0.30349668977186    0.23506075349382
O           0.29755657527591   -1.50575562113356    0.95215109791254
O           1.68329906828294   -1.78859326190880   -1.00814111615132
O           2.71809925653425   -1.68512610301537    1.17384622159963
H           2.82593199095028   -2.55328222101849    0.80313970430133
O          -1.59504512326366    1.98546961899972   -0.45371825485134
H          -0.87735676940256    2.02264802829941   -1.12945068603293
H          -1.90050293351302    1.05076235172338   -0.49191784293058
O           0.55400778069139    1.52086083549045   -1.95116464881156
H           1.12920211592386    1.17566476111085   -1.24907710244606
H           0.27218644586994    0.73815271561113   -2.45057491360178
O          -1.18437890888005   -0.40565342452940    2.85297044614852
H          -0.59966934479074   -0.95566728353084    2.29010831478853
H          -2.07528098168210   -0.58325538691300    2.54117271089342
O          -1.80601167479606   -0.68139525681585   -0.52606940446258
H          -1.50977971029615   -0.85522526742060   -1.43107021148708
H          -1.09674704154290   -1.04404112943465    0.03559175721643
O          -0.14582773079535   -1.04920061279063   -2.73176729588334
H          -0.03153224100198   -1.53105478252655   -3.55210352202848
H           0.55540084557419   -1.37444130039310   -2.11875010483166
N          -0.08221861132318    1.69486976598950    1.61434898820655
H           0.24038946822782    2.51789869733306    2.10969331664917
H          -0.55441016910460    1.01029104882575    2.25312107224507
H          -0.76970699403778    1.94266819101430    0.80264994452668
H           0.71776158366224    1.19127190225794    1.15529388785346
