    26
        -50.46961594  Gyration_radius:  2.54726957274 Dipole_moment: 0.926
 S           0.15102536249056   -0.73011976536056   -1.35509019402752
O          -0.11165825025799    0.66951688175349   -1.71150543714169
O           1.04093952335190   -0.78373119264174   -0.19173913393830
O          -1.06082675264730   -1.47981384700928   -1.13080741791387
O           0.89449003586313   -1.39018084874490   -2.55653670209269
H           1.55775727901708   -0.72743027352036   -2.84098990935688
O           1.47720515966520    1.76705308776024    0.52000707102546
H           1.50899656981521    0.83413373978049    0.23159755237998
H           0.88874868121569    2.19776619267628   -0.10477655895772
O           0.77994632647312    1.47934196598873    3.09678113925952
H           1.06814465617705    1.74676082069658    2.19414780373826
H           1.58356077089735    1.33053952609537    3.59673051833972
O           2.09976076614116    0.89573226007839   -3.10006923779111
H           1.95670759310442    1.26355526136812   -3.97477765508628
H           1.29494943074608    1.09124699359333   -2.57780051028991
O          -1.84923977226022   -2.66053676793620    1.15052858347840
H          -1.87196941780001   -3.61186917617443    1.04412032374206
H          -1.60573909609758   -2.29771226495740    0.27394467134698
O          -2.19272175679135    0.89238947906933   -0.08095698053615
H          -2.75705309526266    0.18064964521864   -0.39583257313228
H          -1.47762515266584    0.95087506350936   -0.74784898211007
N          -0.68099938856741   -0.32701773571166    1.76883128054897
H          -1.36449021581881    0.24237943710353    1.20716691116740
H          -1.14705782660309   -1.18817832241818    2.07581401583112
H           0.07323702704787   -0.60069735943228    1.08786914554884
H          -0.25608845723512    0.25534718921716    2.52119228596905
