    26
        -50.47250164  Gyration_radius:  2.48733230653 Dipole_moment: 2.906
 S           2.15011197338664   -0.72168131654287   -0.01444620411770
O           1.73814223187344   -1.48070960598637    1.16031724873139
O           1.91542465724285   -1.45318614758815   -1.24445695014990
O           1.58861283325701    0.61550026581623   -0.02205741087090
O           3.71950866256585   -0.53926269618965    0.10059488772759
H           4.01647394745697   -1.43595414925689   -0.01030715536187
O          -0.07957001752187    1.21334232892217   -2.02173310924032
H           0.65519155297945    1.08465984930851   -1.38873945780504
H          -0.33504791255387    0.31557009674635   -2.28014923127844
O          -0.58519111812629   -1.52119600817733   -1.89498704237110
H          -0.71621596823105   -2.28651411932876   -2.45668282276834
H           0.37311784554897   -1.53444135606840   -1.63452406930596
O          -1.94365944441622    1.92175930089812   -0.34625474519047
H          -1.24491469019354    1.72091109589521   -1.03470510556520
H          -2.48914118152802    2.61956145695359   -0.70964031191227
O          -2.22816631430553   -0.77177669468418    0.15551246060436
H          -2.32547930707402    0.18103824248937   -0.02273045729935
H          -1.70795500831916   -1.12129877198521   -0.59268619169903
O          -0.03419476687978    1.99179978729381    1.63916539684326
H          -0.76584517898817    2.15654309407218    1.01643570120876
H           0.71373208195938    1.71731930286599    1.07699626491841
N          -0.49345432897980   -0.54803639207632    2.13356541223166
H          -0.34451147899831    0.50620885604827    2.12677608632096
H           0.41489411644234   -0.98180801415832    1.79783216039574
H          -0.74404991261310   -0.89407084565957    3.05245097410244
H          -1.24781326400475   -0.75427754961367    1.41445367185374
