    26
        -50.46061522  Gyration_radius:  2.54391365915 Dipole_moment: 5.966
 S           0.20976329271919    0.24548660413431    0.38163666281832
O           0.43453680094108   -0.98090243832904   -0.41677375453970
O          -1.31986094320596    0.50059485687982    0.37111553770614
O           0.66370007129925    0.08299457340515    1.73885463562141
O           0.78885294935050    1.39176241889686   -0.30820001139066
O          -0.07122227978460   -2.65361278208389    1.61136706483567
H           0.46977223658992   -2.24450021790618    2.29316326849237
H           0.17342549503438   -2.19261360361814    0.78883326434786
O          -1.06229756009705    1.61117452098604   -2.14417923155812
H          -1.88028173935894    1.40708003576553   -1.68168525001700
H          -0.39691964373440    1.73184313307509   -1.42600216954113
O          -0.96914362655803    0.18595307253692    3.83716584070302
H          -0.27017229218156    0.17517643506188    3.15046795101180
H          -1.11016748812100    1.10684370021036    4.06056306163466
O           0.34201331908525   -0.40456555083747   -2.82133926537699
H           1.29884365106342    0.12850075026708   -2.84023130166986
H           0.35376392128923   -0.77930144519541   -1.83906155967793
H          -0.33665424359056    0.35219245524285   -2.75392526122576
O          -2.28374551793910   -1.20628045108235    1.94413516554612
H          -1.76932487348158   -0.19755341672643    0.98727205534805
H          -1.62896408336288   -1.93553622556575    1.84240897121466
H          -2.05103269438011   -0.78025936914997    2.79376453651852
N           2.43364469026040    0.95419611742915   -2.50808708870833
H           2.07382170629382    1.27890634655228   -1.60301377372813
H           2.60131049774690    1.75663063222678   -3.10086505963291
H           3.30633836412169    0.46578983781936   -2.35738429873210
