    26
        -50.46819115  Gyration_radius:  2.43078131645 Dipole_moment: 3.465
 S          -1.66874449586436   -0.95929857420142   -0.40152029876869
O          -1.32533123230051    0.20557370094307   -1.21078297818712
O          -1.08417464089484   -2.17039409521793   -0.94332768115039
O          -1.37188947074418   -0.74169650680979    0.99919738553203
O          -3.23512487424611   -1.13531085338450   -0.50190746412606
H          -3.32534606323792   -1.50945462171014   -1.37136205882411
O           1.76581907198574    1.07235133265733    1.41735082921046
H           1.69374368594375    0.12353232987360    1.67642938907109
H           0.92456267615835    1.47802843883627    1.69871011059773
O           1.50014704312798   -2.06654461199885   -1.18191500083570
H           0.51243135140244   -2.14308203656065   -1.13482518233939
H           1.81098595010679   -2.88821249817134   -1.56478792169286
O          -0.49051765058107    2.86580868638126   -0.81243486299803
H          -0.57116930337332    2.80647625014692    0.14697177130414
H          -1.05924060214513    2.16278573294532   -1.14652528723875
O           1.16610049055841   -1.50957038308315    1.58452017167067
H           1.45578694697578   -1.87173346630705    0.73580756628417
H           0.20588236658872   -1.37529430500146    1.49878788562202
O          -0.85027453568339    1.72128737872122    1.79869959064298
H          -1.10967439228280    0.82654803078209    1.48144797250965
H          -1.30079936115927    1.84765390772465    2.63494309222782
N           1.28965730630749    0.65545892724961   -1.10176001333460
H           1.57984044984304    1.39777006603349   -1.73105159114219
H           0.24231922265146    0.55061933472523   -1.15958254552193
H           1.69955822233258   -0.25911504396131   -1.33436974506736
H           1.54545183853109    0.91581288938685   -0.07671315344607
