    26
        -50.46408423  Gyration_radius:  2.51038009597 Dipole_moment: 0.773
 S          -0.17759854657616    0.05164696286126   -1.78010311000629
O          -0.73569764339539   -0.88264553094865   -0.81887262157966
O          -1.14813780605001    0.78501242680751   -2.54730431563313
O           0.84212174800467    0.89453178560863   -1.16976995093551
O           0.60049670981976   -0.87510513441108   -2.82403782035326
H           0.65200436733469   -0.30934086676865   -3.58666682952006
O           2.62239033884316    0.45200716086047    0.72965958847440
H           2.11404589114196    0.63446041290527   -0.08997984049452
H           2.60475984068520    1.27055480132466    1.23108392809100
O          -0.79058719688044    0.32041064755331    3.03045333357372
H          -0.68174249769334    1.01378822342257    2.33060524885725
H          -1.73560046602297    0.17987380099579    3.10819554958958
O          -0.55355809427592    1.90206450775705    0.92041832863757
H          -1.44310901114826    1.91724158551366    0.51688591708535
H           0.02667566637682    1.61688488882276    0.19430276002750
O           0.98378872936685   -3.02156446676812   -0.72890922596492
H           1.52517643666867   -3.08192838664896   -1.51696333372887
H           0.27692347028691   -2.39617717119840   -0.95050761008208
O          -2.75334177524483    1.70562444974913   -0.63583394156674
H          -2.24905613182221    1.29331147448267   -1.36635876557654
H          -3.17161802032494    2.48288490572314   -1.01210235663438
N           0.64486427521111   -1.21115028958120    1.41894868929607
H           0.11508649135710   -0.80522444407161    2.22933762975617
H           0.05537309595363   -1.06899014003178    0.55677426144567
H           1.52953201816709   -0.66298042110138    1.26809672326896
H           0.84680810018932   -2.20519118283033    1.49264776397602
