    26
        -50.47679050  Gyration_radius:  2.36804958711 Dipole_moment: 3.207
 S           1.27908532732026   -0.72906848382980   -0.47917882719532
O           0.79031026706058    0.28241299347552   -1.41690109576548
O           0.75666227906420   -0.44896777862614    0.86820100669358
O           0.93281666742414   -2.06824637300698   -0.90753535079913
O           2.81973045157471   -0.62243729744560   -0.41649862343797
H           2.97214693445609    0.18910068347779    0.13557036990621
O          -1.24021201004055    1.33657648047324    0.83156956321456
H          -0.83236732689616    2.17435723765412    0.58447755786559
H          -0.48998767333420    0.70917635755343    0.88144066652882
O           2.66789097288243    1.44477732110762    1.14157460547719
H           2.00237011917541    0.90418304194839    1.58835354912839
H           2.15799756999856    2.11207220469503    0.64197874330635
O          -1.45155220298107   -1.49425315462174    1.98433831292609
H          -1.90685959250365   -0.66080323445880    2.14001739842527
H          -0.53137994045631   -1.24174651701325    1.77024482903829
O           0.89830296186011    2.71652588179411   -0.48530670859949
H           1.14195637984956    3.32671000590798   -1.18273435164660
H           0.84060574201879    1.82351266009562   -0.90794493796090
O          -1.87648785868147    0.19975860592976   -1.51979765292470
H          -1.93149718322626    0.71956611377932   -0.68924987462866
H          -0.92796138009590    0.25827980654619   -1.75231847181139
N          -1.64271217534915   -2.21711797196418   -0.56837209855377
H          -1.74748720084555   -2.09553507874093    0.47153060691569
H          -1.91545973237879   -1.29256506446975   -1.03797857772051
H          -0.60036963446758   -2.31616892430603   -0.75273682000550
H          -2.16554174139335   -3.01009951609038   -0.92274382838909
