    26
        -50.46862366  Gyration_radius:  2.56412007661 Dipole_moment: 2.439
 S          -0.00871128606928   -1.85461243670812    1.02394281081417
O          -0.31551914840160   -1.70454821156012   -0.40281009458029
O           1.37267151881390   -1.49789676914744    1.30498738060325
O          -0.96620470455671   -1.17902374999174    1.86025359969090
O          -0.14572893170803   -3.40164202274389    1.33787285446710
H           0.57302166701501   -3.81226440575702    0.86536960373091
O           2.10774528669997   -0.94672447408560   -1.27941000136268
H           2.48427562596731   -1.12884198089087   -0.41032136484390
H           1.19203905955870   -1.26772373611184   -1.19812402524189
O           0.86638313267299    1.07091402046876    1.44489524125938
H           0.51684770637774    1.21828897149782    2.32623711745255
H           1.14855344366397    0.12633711282257    1.43339870085424
O          -0.25772832246287    2.22610150690341   -2.50145679695560
H           0.63335779545215    2.20143396260982   -2.06758078122725
H          -0.13790972636596    1.84357698890257   -3.37171864356454
O          -3.13099518671394    0.28550260301797    1.29622983882890
H          -3.91833075281646   -0.25916837026340    1.32536033108135
H          -2.40136002184666   -0.27056012286281    1.63999068407874
O           1.95691545515488    1.75033840252937   -1.14637734393739
H           1.81253241806739    1.81416838347574   -0.19585645215952
H           2.11412706182395    0.79717820382013   -1.31918038999093
N          -1.11891611615525    0.81440810357189   -0.41166593046365
H          -2.06082880989920    0.87545231602309    0.00935373415990
H          -0.90975719756084   -0.19771402515314   -0.58194241621944
H          -0.98757617696069    1.38475435049019   -1.28283116788906
H          -0.41890378975119    1.11226537914424    0.30138347141013
