    26
        -50.47172756  Gyration_radius:  2.52467636529 Dipole_moment: 1.001
 S          -0.44105947729525   -1.14784257766123   -1.57741776677612
O          -1.63315767637118   -1.19783574979888   -0.74364467560591
O          -0.53612278532008   -0.15602646327603   -2.62849607858178
O           0.76296736172010   -1.02248031918438   -0.77133777581461
O          -0.33557030333300   -2.54372590645349   -2.31682899539115
H          -0.80421004363131   -2.36443911937276   -3.12476897005527
O           2.21843179367831    1.27239189644005   -0.42889410137781
H           1.91532736885116    0.37613520868675   -0.64940297530305
H           1.51635375518908    1.84878588217264   -0.76741041521076
O           2.35281592694260    1.16838969032876    2.22721585757290
H           2.37874970934192    1.33483144239297    1.25238947729214
H           3.21983970699237    0.83525828359660    2.46103379882084
O          -0.15463141026412    2.18750309860137   -1.55484494297524
H          -0.33236947719711    2.86698667059420   -2.20735418242927
H          -0.27440092790323    1.32170463539244   -2.01851225505972
O          -1.52403490547222   -2.34211792146120    1.68972667137457
H          -2.37756931732415   -2.72541206154658    1.89408123490410
H          -1.58878272977808   -2.01308961890921    0.76990865752467
O          -1.74026631394126    1.21384578944135    0.45965554300353
H          -1.25400965117685    1.77199915512053   -0.17114295597435
H          -1.94636641522148    0.39426436868640   -0.02681579541306
N           0.12563555672809   -0.21538000308752    1.68356210944498
H          -0.61472738813349    0.48630655179461    1.41007769905259
H          -0.31906756736796   -0.97645465143488    2.20760237834605
H           0.45675791858007   -0.62259949235340    0.77553796165025
H           0.92946730171458    0.24900119125488    2.15608050697447
