    26
        -50.47636618  Gyration_radius:  2.42309806671 Dipole_moment: 2.565
 S           0.09137596032774   -0.56744638716913   -1.48882663427063
O          -0.26104402577619    0.78246228234232   -1.89196463150957
O           1.30407598259657   -0.56352406348819   -0.66503506489048
O          -1.00632275009792   -1.24681341047060   -0.81388802340876
O           0.40031166162303   -1.40720290400785   -2.76700274301144
H           1.12410608455424   -0.90497977092573   -3.18716811261273
O           2.19888610776485    0.51749285354939   -3.00853451277131
H           2.41061739608196    0.23238509105149   -2.10977478304965
H           1.43100969779525    1.09718665653786   -2.90979980049747
O          -0.47434081257750   -0.47781465325252    2.82560754549958
H           0.18993459034852    0.17379919430777    2.54411988897439
H          -0.18291547690584   -1.32391678983755    2.41426760782334
O          -1.01073204581223    2.32906412424721    0.13418268206652
H          -0.20303010466504    2.22176369267606    0.66190196919627
H          -0.79569364440879    1.91260489616696   -0.72774926388707
O           0.33408116056336   -2.43699968570315    1.18892973396032
H           1.20302723874240   -2.16920163763401    0.87385209126731
H          -0.25807243059241   -2.21065888461802    0.44902953431943
O           1.19205940157811    1.13542709035309    1.32021286546655
H           2.08941268505670    1.42635018110873    1.48995877986012
H           1.24707030783305    0.48819705658381    0.57320686322492
N          -2.24584338238314    0.19853253526226    1.02911033475383
H          -1.93164581293664    1.17290165525989    0.73328206820989
H          -1.93780833221527   -0.43510409552620    0.25238948020099
H          -1.66458408250655   -0.08211678943398    1.88682751957043
H          -3.24393537409278    0.13761176260564    1.19286458550340
