    26
        -50.46944512  Gyration_radius:  2.48665400792 Dipole_moment: 3.831
 S           0.33946861765531   -0.97868386107535   -1.69049551217081
O          -1.09805594804584   -0.91778197511643   -1.54518835003735
O           0.91003987677106   -0.08606498659001   -2.66592709170472
O           1.00099893766477   -0.87076530298852   -0.38284149014021
O           0.66824259837991   -2.44821667523907   -2.20971387686703
H           1.31289408571684   -2.27985261163867   -2.88899004063418
O           2.25817206832258    1.20771169235090    0.61089280839909
H           1.85827013640518    0.39738556236204    0.21452079145896
H           3.20787742702062    1.09915676296197    0.54460033112559
O           0.78696765734691    1.38306514086195    2.90179564091231
H           1.41787107851920    1.36137363695403    2.15421879986757
H           0.50853885086461    2.29613092076117    2.99066258953662
O           0.24762683992235    2.07851196033135   -1.20835684879669
H           0.46827739790871    1.40380480879566   -1.87428814010950
H           0.98679980205336    2.08514206843510   -0.58715280495479
O          -1.77403159360442   -2.57248549579442    0.45596955933176
H          -1.58620431009157   -2.02100681408279   -0.32907116576790
H          -1.81332158551658   -3.47519554867471    0.13966783836057
O          -2.11792439751670    1.26017199018145   -0.26057937801575
H          -1.36185110654426    1.79115266660259   -0.59055165746071
H          -2.16711158213864    0.52692089309804   -0.89312087444622
N          -0.81970164975564   -0.24976842409370    1.45849832562703
H          -1.44662808830897    0.40556280760918    0.89472828457232
H          -0.08285511615142   -0.57547181724495    0.78582442163070
H          -0.35730798957880    0.25727303759159    2.23711919424341
H          -1.34705198730918   -1.07807042635160    1.73777863605012
