    26
        -50.46936869  Gyration_radius:  2.54177506349 Dipole_moment: 2.066
 S           0.06404746276198   -1.54340468430886   -0.66037419931964
O          -1.33095597035417   -1.21940023822617   -0.97020438253017
O           0.92125848729431   -0.39258916375206   -0.91860684397374
O           0.22028940331318   -2.03434113785068    0.69465944439333
O           0.50509121952895   -2.69052321803827   -1.62378429054092
H           0.26736019211756   -2.33230707295084   -2.49884867082480
O           2.20179921645595    1.52758740842862    0.46494567148969
H           1.68972659233822    2.22722520451078    0.04617902623046
H           1.92079067465838    0.71359793126310    0.00547489299891
O           1.58680580200144    1.16296907041724    2.99177612578128
H           1.86193817816622    1.39230601378525    2.06502602771001
H           2.31307601933632    0.65579269310394    3.35805240086140
O          -0.15862688140942    1.98815148610125   -1.27722520828380
H          -0.42357134021810    2.10870884249419   -2.19021583389662
H           0.24308165853397    1.09037623795570   -1.23132356760946
O          -0.80179529778429   -1.33700725183049   -3.51502709755883
H          -1.47100144346007   -1.82217968612092   -4.00272380658309
H          -1.18449809769676   -1.14754759445736   -2.63145016590750
O          -1.99006949104100    0.93965742099976    0.43040431816557
H          -1.95331596286482    0.12023488890413   -0.10637293550873
H          -1.43556276323602    1.56827641683243   -0.07066327380266
N          -0.61506208086798   -0.19351977642782    2.35500828914513
H          -1.21438261935129    0.38887347005236    1.68919922386138
H          -0.26104776031028   -1.00441774567508    1.76963937652528
H           0.21413643523168    0.36499939421931    2.69234074442493
H          -1.16951162315401   -0.53151890943178    3.13411471474766
