    26
        -50.46973901  Gyration_radius:  2.48469869242 Dipole_moment: 1.620
 S           0.38160593790110   -0.40548731392788   -1.50755149487956
O          -0.98363225089676    0.09949007182943   -1.32079462794585
O           1.25013264190878    0.08787747106574   -0.43701206201482
O           0.42751651862707   -1.83687835751022   -1.62798051690197
O           0.91018794647000    0.21943002533862   -2.84521587439919
H           0.71819330284976    1.16696884425979   -2.76056891272077
O           1.17705139179658   -3.04879994566343    0.65888511537356
H           1.79174698588606   -3.75203468829179    0.44581711805079
H           0.95987510140387   -2.62765172198335   -0.19514954975538
O          -0.60286924884301    1.61075026074843    2.65016719945979
H          -0.08407661609727    2.07197200454770    1.94777042924312
H          -1.52352053352129    1.81611443553593    2.47881209419740
O          -0.40929136916659    2.49190094465354   -2.09209122153283
H          -0.80348221552786    1.66168900078861   -1.73262480287222
H          -1.04583591937272    2.85126537726970   -2.71311852623088
O          -1.80707127902352   -1.83288142501752    0.28843914293268
H          -1.69056035435497   -1.11433972384065   -0.36688601891072
H          -1.41934302115584   -2.61090287779243   -0.12307547619961
O           0.71039391406282    2.53525876415979    0.52202519601544
H           0.29411690193590    2.93289483272543   -0.25136808778381
H           1.06281393919053    1.68485225719309    0.19635876169914
N           0.13905446127035   -0.80388955546967    1.79158400669850
H           0.71318654475496   -0.48615824628193    0.96793015704957
H          -0.69927735510407   -1.28774904995730    1.37141787130807
H           0.68203708635810   -1.47598789298648    2.32655008275716
H          -0.14895252134861    0.05229648862317    2.32767999736327
