    26
        -50.46920749  Gyration_radius:  2.4717772655 Dipole_moment: 3.842
 S           0.78643637592715   -0.35709707002451    1.56004810299019
O          -0.43359032969987    0.14545688355563    2.16602217647275
O           0.50317718880355   -1.40917913767641    0.58384469904725
O           1.64174161150578    0.67048588582601    1.01775017651511
O           1.60076009419451   -1.05033098246228    2.72398885904567
H           0.93800710228158   -1.58319166244392    3.15080900075327
O           3.15335370148077    0.77752622930493   -1.13940515104486
H           2.72240389526396    0.72923010454301   -0.25676651342019
H           3.41646980491453    1.69116265551565   -1.25984965086640
O          -3.07584109102032   -0.05646627185377    1.54804014903717
H          -2.18419321885687   -0.02826504687006    1.93559000444794
H          -3.27003212223127    0.84359044894335    1.27714640994148
O          -0.69647610605030    1.96927054379750    0.23856890348258
H          -0.67889658039000    1.34299553026521    0.98620080783405
H           0.18336274168553    2.35255600832489    0.23439711404773
O          -2.02142554245299   -1.45413981483461   -0.53551415352795
H          -1.17258001166519   -1.60545878821706   -0.08948509383904
H          -2.60214565681208   -1.07865081851742    0.15389666274642
O          -1.19273474142307    0.56308114993627   -2.02310933462541
H          -1.10475808690688    1.21769995701834   -1.30080233605680
H          -1.68828355247519   -0.18814451223677   -1.60939514699540
N           1.05223399250109   -0.70771168464152   -1.90106829098136
H           1.90119500995774   -0.10745482101859   -1.85930456785117
H           0.15340303372646   -0.12241621399498   -2.09320679849537
H           1.15745400723134   -1.45702735087955   -2.57601237087568
H           0.91095846054686   -1.09752122140069   -0.93238363777005
