    26
        -50.46913452  Gyration_radius:  2.47885843559 Dipole_moment: 1.838
 S           0.11592855588764   -1.52964005249458   -1.26357255493338
O          -0.79991607959588   -2.32075659699580   -0.47473867026454
O          -0.55233160995487   -0.58926972310050   -2.14568118844089
O           1.15201241761551   -0.90470612236613   -0.44591189500377
O           0.90012373817422   -2.53909001022682   -2.20107241808215
H           0.19223975501474   -2.97814704047321   -2.66063887351768
O          -1.43633224470777    0.81355589025514   -0.01670489014152
H          -1.35484175924804    0.28929240255351   -0.82879137501575
H          -0.61492700971048    1.33685068665015    0.00703200729828
O           1.13731702269036    1.77247890681073   -0.25794858979061
H           1.03097759395044    2.07789675305568   -1.17854670356852
H           1.34514518490165    0.82350486047591   -0.35488161348344
O           0.42444495411620    1.80812198140177   -2.85715093235035
H           0.11961118479176    0.89158364672392   -2.69782712232046
H          -0.32270332550125    2.26881963602199   -3.24235355666598
O           0.75609489600170    1.87155972215699    2.40454525867624
H           1.05643364962204    2.02843828078802    1.48862058668360
H          -0.11488538669222    2.27014745814839    2.46809434909119
O          -1.95353541892542   -1.23222435733439    1.65171148752943
H          -2.07760353987134   -0.37954106617888    1.19188600614189
H          -1.73843127373644   -1.84314818567507    0.91767074092654
N           0.56521124697793   -0.79686774702288    2.12632176508115
H           0.69200678301446    0.21720180772364    2.37069310857138
H          -0.48937853832843   -1.02368228277687    2.10317055607274
H           0.89386645444615   -0.93207570171088    1.13351761795287
H           1.07347272904215   -1.40030313639857    2.76255691956503
