    26
        -50.46816167  Gyration_radius:  2.53495284521 Dipole_moment: 2.184
 S          -0.29027352084484   -0.83290478977053    1.69522809673628
O           0.97930127398221   -0.49018938791452    1.05800187045818
O          -0.91522205222469    0.33368090611633    2.28365528156618
O          -1.16755655975942   -1.57612847272794    0.81437567930261
O           0.06845991412881   -1.82126949080579    2.87883577756539
H           0.64404876535732   -1.30509138138359    3.43456466530919
O          -2.39684695684548    0.57066064098703   -0.16372064043775
H          -2.61552412251100    1.03467973476873    0.64941617228392
H          -2.12358253535117   -0.32166759196717    0.12494416601540
O           1.46261418531389    0.79897761934982   -2.80496688141569
H           1.88448885211234    0.04119025379407   -2.31895121684944
H           0.96324264344808    0.40030811826604   -3.51985716510434
O           2.15223723874665   -1.27853786910858   -1.33258692051494
H           1.36664127812054   -1.81398337690791   -1.55373384472798
H           2.00729974917376   -1.02485172791718   -0.40913383076660
O          -0.29316071138827    2.85568864203586    1.62917720474113
H          -0.28966223655685    3.40829450421586    2.41097830339161
H          -0.52713409431890    1.95379316693239    1.93130947333704
O          -0.30015871645329   -2.40939899548486   -1.57360968970040
H          -0.63658013847515   -2.11465876272924   -0.70301385791495
H          -0.53833088700565   -3.33459164345716   -1.64773936484837
N           0.11611699672254    1.40489757596491   -0.59816228202926
H          -0.90279562307332    1.16053618299976   -0.64404467594249
H           0.20335897304295    2.31784515163805   -0.14224393653787
H           0.55774373762536    0.69773771035896    0.03806665081303
H           0.59127453703075    1.34498329275290   -1.53678902472626
