    26
        -50.46061515  Gyration_radius:  2.54362945034 Dipole_moment: 5.968
 S          -0.08995107365840    0.25082279844803    0.42446086568474
O           1.43039552874566   -0.02628994052295    0.29326374154823
O          -0.27218036451665    1.60533414829066   -0.08239966959414
O          -0.76907635030992   -0.71153516684691   -0.47243921444943
O          -0.49731296393612    0.07424767076275    1.79464652826821
O          -0.76966620090334   -2.70783937561875    1.31154769738939
H          -1.09412221183734   -2.23242920522719    2.08200563421766
H          -0.88308102697873   -2.08716278112416    0.56942639262337
O           1.43712580948018    1.42731287108285   -2.05509212641728
H           2.15753862366574    0.89997162199184   -1.69790579486940
H           0.89507579273353    1.66965947955980   -1.26732232416279
O           1.18259985558558   -0.66398588191878    3.72141892856886
H           0.48724158852901   -0.34530848637083    3.10892546995173
H           1.64579457713468    0.11597773743122    4.02943847951771
O          -0.61325346380315    0.11084110097124   -2.80119970454858
H          -0.70072480648167   -0.36395009175058   -1.86745259092602
H          -1.32584417233351    0.93311613306579   -2.67145963081804
H           0.28815429909782    0.57863441848634   -2.72048032704092
O           1.82404385526970   -2.15415942976675    1.57227282751131
H           0.95150403672908   -2.59785625579580    1.45977270310610
H           1.64143405924525   -0.91156611363846    0.78342803313603
H           1.80272657151552   -1.79184479884772    2.48092264333979
N          -2.08435864853024    2.04107816834493   -2.14661452505711
H          -1.58539677842414    2.10352926596351   -1.25150730191985
H          -3.06252674542424    1.85979712848854   -1.96445240661412
H          -1.99613978059612    2.92360496453953   -2.63320433844295
