    26
        -50.46995674  Gyration_radius:  2.4048322475 Dipole_moment: 4.982
 S           0.25528237378803   -1.26367032520222   -0.73991606771909
O          -0.84707854274206   -0.30935586584112   -0.78094681502462
O           1.47769351268626   -0.59602535835559   -0.26899320513986
O          -0.07355418033721   -2.39956949120363    0.11150150546859
O           0.51085594829727   -1.79595946175703   -2.16077415021820
H           0.51580226543429   -0.98552620725930   -2.75002536915570
O           1.20386526756242    0.22472825156428    2.16176596426005
H           2.05075613472015    0.18984415995926    2.60895046685621
H           1.37211429885333   -0.10142423739413    1.23379590606296
O          -0.44452340391035    1.96076754617414    0.55204634045858
H          -0.56176216828905    1.17432824215970   -0.02144483245855
H           0.16882043854113    1.68564093072611    1.24321193830147
O           0.67678910920779    0.36654375375995   -3.55786258437808
H           1.41593968520260    0.30787814172781   -4.16736526990023
H           0.94726223790394    1.01692671398917   -2.85840746877340
O           1.54274913876271    1.76383345611679   -1.50224955305167
H           1.67604345385506    0.92077759922795   -1.02246175738180
H           0.87349010036790    2.24105661484965   -0.99184289430723
O          -2.74910489734885    0.39963856434144    0.98099582442681
H          -2.34044104593520    1.27653906250658    1.05004713753688
H          -2.42656952934827    0.06777051015270    0.12362567441129
N          -1.06277117885584   -1.23718669848695    2.18467346971879
H          -1.83295873809703   -0.59497615528932    1.81965981984045
H          -0.72379624809247   -1.82973912154387    1.34925386781732
H          -0.23980039829970   -0.66134028647128    2.45421751686685
H          -1.38510362394163   -1.82150032839147    2.94854455547620
