    26
        -50.46761531  Gyration_radius:  2.48121769556 Dipole_moment: 2.338
 S           1.24042589434702    0.06075107467507   -1.59962094877543
O           0.54340679918684    1.30861021915288   -1.85893826086806
O           2.41163247758943    0.21636643237635   -0.76944987176505
O           0.35081670361182   -0.99473403526876   -1.13220017387825
O           1.76364015253781   -0.45574568700476   -3.01037973643973
H           2.49437756602346    0.12573656160982   -3.19684549292476
O           0.10902480362550    1.37399758463068    0.81363784949806
H           0.40105686849240    1.44088672698418   -0.10677780063689
H          -0.83146973937172    1.57204930856608    0.80703790938133
O           2.36707697688752    0.36929474129589    1.89840944600511
H           2.62389211687256    0.34869842062270    0.95363825796021
H           1.71500193993054    1.08304037185090    1.93537987068624
O          -2.02143932648947    1.90243540619349   -1.37308458859021
H          -2.43674105255689    2.28352678069776   -2.14757602167790
H          -1.08590771612300    1.74203114379152   -1.61625019166786
O          -1.93713388873084   -1.01660671486784    2.04394334216826
H          -2.57398189098634   -1.67632048763014    2.32072003867546
H          -2.14510789957883   -0.82025233161246    1.08907320590427
O          -2.27910574394258   -0.67086332665808   -0.53149864284212
H          -1.39033720031255   -0.89630970053379   -0.85986851595880
H          -2.40024024570670    0.26166743996393   -0.78803974750344
N           0.61857756311098   -1.53701955337301    1.44480648281670
H           1.33253187457540   -0.81288273750512    1.77920051743613
H           0.55678443390232   -1.40382173178085    0.40162173178941
H           0.90965369847643   -2.48127860298580    1.67172855134460
H          -0.33643516556573   -1.32325731327192    1.83133276979347
