    26
        -50.47153664  Gyration_radius:  2.41207348265 Dipole_moment: 4.082
 S          -0.30087583474964    0.22661489939571    1.42815920640835
O           0.19673786274947   -1.14014413391533    1.29068550814136
O          -0.06502628417011    0.97309844299609    0.18227317681236
O          -1.70780834548687    0.25565921213899    1.78686094206359
O           0.48855840479002    0.93071281410333    2.55015342367395
H           1.41491836840379    1.04257277664638    2.19103979741674
O           2.89423537203194    1.02975994125558    1.60084283065324
H           2.91214253875561    0.19862182728173    1.05033475817549
H           3.51472429447871    0.88694172966055    2.31855987472810
O           2.63601201504089   -1.20834622665385    0.26811665607823
H           2.35961734681269   -1.00386834427532   -0.63914133048272
H           1.79397856515108   -1.37833875982202    0.73890791382683
O           1.16724869358543   -0.12131750540122   -1.83578499807083
H           0.73641986387529    0.31887107397787   -1.06019358664922
H           1.69206010977514    0.55439534213317   -2.26726370378361
O          -0.80791997858280   -1.96425449269931   -1.00383910552324
H          -0.16536340087968   -1.55174202557327   -1.59667136716932
H          -0.42478397764584   -1.84328240061763   -0.10518466781642
O          -1.86239278677670    1.88881416986916   -1.51324047724369
H          -1.18078060674178    1.72837847867701   -0.82019163295579
H          -1.38801675070268    1.94513221521333   -2.34464451496927
N          -2.81896792651360   -0.36424668739074   -0.45993298237178
H          -3.77582686574305   -0.69909601723304   -0.47705171868189
H          -2.68790421433634    0.50958993427033   -1.01936460330050
H          -2.49962230139106   -0.11893009302620    0.53385416581070
H          -2.12136416174779   -1.09559617104739   -0.79728358479723
