    26
        -50.47771698  Gyration_radius:  2.36998328521 Dipole_moment: 4.699
 S          -0.46815919273504   -0.87172266894126   -1.08863561396915
O           0.47586459785545   -1.33412624443729   -0.06224490222579
O          -1.39949660743401    0.10309529963802   -0.51595382152221
O           0.23523714524725   -0.34248044186838   -2.23525907167766
O          -1.29104722781695   -2.10702949143080   -1.54283320710568
H          -1.85047541207315   -2.29992768633717   -0.75493523349547
O          -0.38819803107463    1.11266408121036    1.70585275872854
H          -0.87254847065218    0.79380507626341    0.91182627082049
H          -0.29029228744248    0.32263404991075    2.25631222401445
O          -0.33650769006425   -1.61486577706875    2.38639372893131
H           0.17772997846736   -2.28277108672378    2.84171199672425
H           0.02947817759451   -1.55980846286299    1.46895268911315
O          -0.21474556275832    2.21938512594417   -1.88904220779191
H          -1.08537121864082    2.12757910506016   -1.48750497333683
H          -0.01895070344953    1.30936980423444   -2.21091049105025
O           2.64551091850102   -0.09262063049881   -0.82763744720551
H           2.45086784471279   -0.08258290672160   -1.77111707220889
H           1.95242146694065   -0.68992038049567   -0.46489873043211
O          -2.56759885862023   -1.95900189031044    0.74549426895049
H          -2.54104990219552   -1.03153909661015    0.46556033245121
H          -1.96186590901993   -2.00917728708042    1.50375406109021
N           1.48730537725947    2.08266490040172    0.12807541457932
H           2.09464685712669    1.27262400397378   -0.19372177930004
H           0.84847559611471    2.31212246407135   -0.69091600748555
H           0.85053056676357    1.73861959167691    0.90434332836347
H           2.03823855739571    2.88301055900015    0.41733349503432
