    26
        -50.46061519  Gyration_radius:  2.54385811464 Dipole_moment: 5.968
 S           0.04058020591088    0.49749077544749    0.03968901675696
O          -0.94937308442933   -0.03146849600959    1.11005460993704
O          -0.79936271454495    0.93735011167383   -1.06749110821766
O           0.85819362290643    1.53767903393038    0.60900323954748
O           0.85608512380532   -0.66295666297534   -0.38492885999205
O           2.60259192317668   -0.45126069174052    1.63312885589428
H           2.78393624083180    0.49215648715298    1.58791289011198
H           2.08699920622914   -0.64505562547637    0.82973797963018
O          -2.53912309669081   -1.01170743086268   -0.92491944299577
H          -2.64226272714699   -1.16907905630991    0.01806936535964
H          -2.05204756372477   -0.15566869418523   -0.97998445523064
O           0.64762346881468    2.32366578590731    3.14236077916897
H          -0.07383677367881    2.95110691772527    3.20187016275786
H           0.78234061617136    2.15141139768053    2.18713404354425
O          -0.45383865266966   -2.02725270496825   -1.98027627364568
H           0.17806360401928   -1.56178901108539   -1.28062177155425
H          -1.37723463803681   -1.84087591617923   -1.59232611588924
H          -0.39017998884882   -1.31351525143148   -2.80876995393961
O           0.43567414976624   -0.36047204394100    3.18177272106288
H           0.50372910433087    0.57219779326556    3.46957734075244
H          -0.42051552247482   -0.20928770729924    1.98025320024470
H           1.31344328162665   -0.56357364601865    2.78289506422956
N          -0.34803713625225   -0.11113551576062   -3.60416089739579
H          -1.09455766956694    0.01701576036090   -4.27472937015446
H           0.53643490023228    0.09220426561376   -4.05049872643584
H          -0.48532586976668    0.54282009548688   -2.82475228354811
