    26
        -50.46061517  Gyration_radius:  2.54378791161 Dipole_moment: 5.966
 S           0.27991630669025   -0.41528010632241    0.01654918489465
O           0.83854469846664   -0.43178165526493   -1.32971538601148
O          -1.14803099611064   -0.02846178720355   -0.04204112455297
O           0.46523131950031   -1.64277337244257    0.74705889041552
O           1.01671950120719    0.73970914136805    0.74362530402031
O          -1.71911402588576   -0.93266830604106    2.41225413955745
H          -1.30155945492014   -1.79765769627815    2.36364822458372
H          -1.69091826264492   -0.59065477034665    1.50059573387084
O           1.84600670412820   -1.78327747494984    3.01725937945196
H           2.77601270471901   -1.85161042131775    2.79792833520013
H           1.35871942427620   -1.86174739705879    2.17069845190834
O           1.00557869331882    2.16279431839977   -1.62330591097992
H           1.26808825308728    2.48332629419795   -0.75556872073261
H           1.14040262050758    1.18673355735817   -1.57655373482904
O          -1.46661216547494    1.59996604426171   -1.87752666570147
H          -1.44912190155314    0.95801797638836   -1.04494133541295
H          -0.55325003928514    2.04793114704156   -1.82189145339943
H          -1.33264345195063    0.87533015921699   -2.68783511707309
O           0.40562713564708    0.48676011476151    3.16870710006825
H           0.99971573374220   -0.25580614612856    3.39896676094169
H           0.77546209410155    0.69587404708338    1.74789166642691
H          -0.48693731579926    0.07698399659275    3.08926955178052
N          -0.87948365299968   -0.22184965818483   -3.50734730607161
H          -0.15367669971859   -0.55153652066741   -2.86044610282497
H          -0.44733881319041    0.01806203138672   -4.38999656558101
H          -1.54733842986501   -0.96638352584915   -3.65728329994761
