    26
        -50.47071964  Gyration_radius:  2.44010768716 Dipole_moment: 2.608
 S           0.00995846942835   -0.40827767648881   -1.74759705165145
O          -0.71223476773899    0.84130258051478   -1.76610715964630
O           1.44121917966796   -0.21662343272747   -1.55831805493544
O          -0.52968109362842   -1.37947672286493   -0.80643904297160
O          -0.18110261161157   -1.06583074591098   -3.17288007930540
H           0.03756051159611   -0.34244984404209   -3.75009992905454
O           3.03772866084886   -0.72641769074493    0.52397820587063
H           3.37641236599506    0.15419533654226    0.70508324186850
H           2.59516847653459   -0.65764213038554   -0.34620313748951
O          -0.02983160785382    1.34218831077217    2.03659999962012
H          -0.91992094278132    1.42198939905178    1.60516283313772
H           0.57891686573217    1.75540057186323    1.38987784404202
O           1.32784146343188    2.06660784337324   -0.18095905543075
H           1.42131670494642    1.26161116706717   -0.72533948992765
H           0.64191745815410    2.57536557294843   -0.62099402546412
O          -2.95943072827636   -1.29982674311811    0.33003814646899
H          -2.10694921557545   -1.42417064266588   -0.12920748131867
H          -3.64299636605981   -1.53519543175209   -0.29878669260483
O          -2.14971759222403    1.32642325143027    0.48392255382052
H          -1.70050996304717    1.25431485611072   -0.37795686107181
H          -2.61574218175140    0.48026984937928    0.59670976181522
N           0.61453100641913   -1.11072009626924    1.58386019758099
H           0.30925827588460   -0.10429183900476    1.88816921156299
H           0.12031521829931   -1.32511416474821    0.68668719556325
H           1.63874119173435   -1.07998140785922    1.35961816535161
H           0.39723121187510   -1.80365018047246    2.29118069416771
