    26
        -50.46379208  Gyration_radius:  2.52737095712 Dipole_moment: 3.678
 S           0.74090628219847    0.05627826336867    0.14774133652838
O          -0.18755710500179    1.08107936548981    0.87603602562798
O          -0.18806139349564   -0.74516764407138   -0.70335680922234
O           1.61747429129654    0.84381890519333   -0.68166629052140
O           1.39359481530085   -0.77622729638334    1.12565390349964
O          -0.91881121164427   -2.42210836664275    1.25392222419746
H          -0.07172946005889   -2.67298167118157    1.63357339041145
H          -0.69307716952782   -1.92978955698980    0.44381659833761
O           0.79980938867038   -0.75445858225021   -3.23277395973519
H           1.71265387784602   -1.04586366834853   -3.20503104575308
H           0.45436372618548   -0.87965577343717   -2.32858897577466
O           1.05781008894229   -0.51939888220642    3.75141490162148
H           1.29597287801933   -0.67496469319387    2.81344158803301
H           1.65376466206971    0.16065051987637    4.06777636665238
O           0.64146219060360    1.90125419636094   -2.86854763749524
H           0.72069362000432    1.05710620150895   -3.35951244769423
H          -0.66533266008612    1.71289298012161   -2.18619692706114
H           1.18822891808748    1.72800955127805   -2.06641630060752
O          -1.38262229727484   -0.21592692630285    2.67295974405570
H          -1.42637510081615   -1.10164478071879    2.24261406108763
H          -0.65639585103186   -0.29621081377628    3.32433136567978
H          -0.69708957658451    0.59011388625479    1.62890462422596
N          -1.45863972910997    1.33961524132757   -1.51484555842500
H          -2.37379918699149    1.29778989286941   -1.95194175164235
H          -1.46600407854825    1.89153372683088   -0.65615083718149
H          -1.09123991904318    0.37425592501938   -1.22715756884292
