    26
        -50.46849316  Gyration_radius:  2.56116153914 Dipole_moment: 3.306
 S          -0.10045459971947   -0.78203299305661   -1.94085389323780
O           1.28706660586946   -0.34425280487464   -1.97257456204450
O          -0.25363581885423   -2.04562917572045   -1.24905040403456
O          -1.01287226392371    0.23599111313091   -1.44110773915578
O          -0.52174511358622   -1.01304138654543   -3.45215826846965
H           0.17943267630218   -1.54497335591859   -3.81732644307519
O           1.54368920900048    2.01099173491350    1.32564201336544
H           1.92362321189152    1.12790876886699    1.26762270444163
H           1.29495513053050    2.24711722889166    0.40540067399013
O           1.71621513048432   -0.78670655486698    0.56970237741745
H           1.65059220671709   -0.60443487988393   -0.39770714340626
H           1.88216182096384   -1.72915672276610    0.63905517704979
O           0.77143567830164    2.24376859594592   -1.25218193423534
H           1.41354259131832    1.66630960606909   -1.68299466827996
H          -0.06109409915581    1.75130352274885   -1.34330705432746
O          -1.80878616251079   -2.69245868131465    0.82007099749110
H          -2.61364679559486   -3.09601638937483    0.49342646938790
H          -1.22500150562825   -2.57915708660615    0.03956358715374
O          -0.75405470357336    2.02235047602878    2.62654048365870
H          -1.21048635475700    2.82756930297367    2.37870027329482
H           0.16920163177369    2.11421528110725    2.27766683860820
N          -0.87446916192340   -0.20055407364209    1.16646764167931
H          -1.10477290025681    0.07127134083905    0.18269654230341
H          -1.41137695722105   -1.05577173706734    1.38716008321114
H           0.13923724642733   -0.44680707866238    1.14260132014833
H          -1.01875669288892    0.60219593894395    1.82694493709973
