    26
        -50.47301021  Gyration_radius:  2.48578947862 Dipole_moment: 3.134
 S          -0.58031620546845    0.37915259854428   -1.90065221359651
O          -0.50893964150868    1.58728010623647   -1.09140095981553
O           0.62936046215714    0.17014877454613   -2.67317122273704
O          -0.97822175754391   -0.78603051222212   -1.13261547349540
O          -1.74612952833077    0.61229939706930   -2.94917045049693
H          -1.38909171955349    1.27959220431705   -3.52613057613762
O          -2.65836548703429    0.71722299365801    0.24762412448484
H          -2.09826895657251    1.44933180727487   -0.04862251560806
H          -2.29187441965002   -0.03321663618649   -0.25394411426227
O           1.57393321805175    1.45921883743934    0.52906525410630
H           0.80564565299748    1.65526131197385   -0.05102579704214
H           2.15963712306827    0.90685053511650   -0.01540872675544
O           2.61885065261189   -0.46686647623561   -1.15141908946973
H           1.88252447750255   -0.23844443044462   -1.77866124834307
H           3.40455025768744   -0.56025073485857   -1.69249476250677
O           0.88841626523442   -2.13065654147850    0.19343631256042
H           0.12820019322278   -1.81171434479725   -0.33696019401943
H           1.66527492204574   -1.76596180812636   -0.26370659355843
O          -1.95100499250105   -0.03334774764436    2.66135006970226
H          -2.27620627893523    0.34221160837121    1.79879127130472
H          -2.49639953875344   -0.80405108773805    2.82643371896007
N           0.64618824234075   -0.38970603568362    2.14922449158509
H           0.73070988530241   -1.20592216221261    1.46700080902979
H           1.00715144079357    0.45777503490599    1.60876395366671
H          -0.36643440052853   -0.24470389536034    2.40027182684504
H           1.20081012333652   -0.54547279642378    2.98342208562592
