    26
        -50.47229218  Gyration_radius:  2.48001634764 Dipole_moment: 1.994
 S           0.06243576486341   -1.00164508801394   -2.04635324526853
O          -1.08018670994628   -0.58442792638133   -1.23902335458946
O           0.71895312714594    0.12810807751020   -2.67471683314882
O           0.95785811736506   -1.86469609857396   -1.30377428528728
O          -0.51901514701474   -1.87896755307344   -3.23129840057286
H          -0.82180735267788   -1.20668698194594   -3.83248377229606
O           1.43399586640299    0.67637101619928    1.81180730876437
H           1.62962611056969    1.01887010852239    0.91907307256105
H           0.55675259198437    1.03409560223608    2.03915149311147
O          -1.20811127059460    1.42872668916153    1.98913542742044
H          -1.19765270452815    1.70440901146699    1.02743349461081
H          -1.69870211042973    2.10285016337951    2.45958345053828
O           1.73799115286691    1.55074527904714   -0.76627613925082
H           1.39668169320626    0.98224230571260   -1.50329497187810
H           2.58117671377374    1.89264193023474   -1.06773082187819
O          -1.88532348872680   -1.14904516496023    1.26616261583241
H          -1.81958690936425   -0.25716266284948    1.65264350707232
H          -1.81596141833006   -1.00881354320536    0.30196745707935
O          -1.02274068405084    1.98478697434470   -0.54993385600960
H          -1.14247558146296    1.08132832184006   -0.91027521401784
H          -0.08516929796982    2.17809768076705   -0.68676521850247
N           0.65880110610886   -1.78835125951735    1.28984948651102
H           1.09516078919427   -0.86462715207125    1.58352948742598
H          -0.39425090989647   -1.68537367826689    1.41281332535507
H           0.82522777377328   -1.90105322568059    0.25017724448194
H           1.03632277774108   -2.57242279589643    1.80859875193977
