    26
        -50.47296424  Gyration_radius:  2.41737326517 Dipole_moment: 3.126
 S           0.19645844136725   -1.38573605592273   -1.18896521286291
O          -1.25391318437571   -1.40925320274393   -1.01406555568648
O           0.63343736612876   -0.09761515935739   -1.71457258029987
O           0.90229644094732   -1.78840044370416   -0.00024232720092
O           0.52424425711301   -2.44657470209513   -2.30943906773393
H           0.07344965942112   -2.06883977777589   -3.05633516575022
O           2.69354190246833    1.35688684286800   -0.80156677153757
H           2.05114394131741    0.76971886774731   -1.24572877190253
H           2.33410138606738    2.24263087394969   -0.88460907476202
O           2.29714722262072   -0.03380210183423    1.46112735638486
H           2.66652659474690    0.52452230461302    0.74529961816136
H           1.95711772476971   -0.82183161442628    0.99267360168553
O          -0.61004288831108    1.91218824064985   -0.48759484150353
H          -0.13022539294909    1.24998461755929   -1.02879301958510
H          -1.55126736960738    1.71714064626453   -0.66010190599686
O          -1.33311405507129   -1.45399496251120    1.61254818690440
H          -1.41159864016128   -1.48285775507193    0.63253935218736
H          -0.62868958746899   -2.08114344532736    1.80075630013679
O          -2.95928043528578    0.64829119819676   -0.87132425189014
H          -3.60933631574263    0.37202609209341   -0.22328221408387
H          -2.40420056848984   -0.13789330349264   -1.04392082038773
N          -0.09783830876139    0.90280313674867    1.88391147883750
H          -0.32387071046171    1.42435721049746    0.98050727656762
H           0.93220671777632    0.59394367942261    1.82509614804965
H          -0.27533176159573    1.47347031108115    2.70229918815555
H          -0.67296244646177    0.01997848257145    1.89378307411070
