    26
        -50.46061525  Gyration_radius:  2.54401113817 Dipole_moment: 5.973
 S           0.06745149414987    0.36548520245934    0.33389265183389
O          -1.02735011535956   -0.23582710571444   -0.46090278022527
O           1.10192946631775   -0.76367403222973    0.57889425297028
O           0.77151327037889    1.35475151201813   -0.47270964139244
O          -0.40987895506737    0.86621039583743    1.59717912302326
O          -2.31111142336316   -1.23782712584415    1.66391599031500
H          -2.30558343573531   -0.46256395187420    2.23297080086553
H          -1.99454065650670   -0.91592791274788    0.80072629055685
O           2.07867824725268   -0.34637285661595   -1.97057388228347
H           2.31142747223369   -1.06079891005281   -1.37051248375500
H           1.77251562014674    0.38166000350685   -1.37962027622254
O           0.39771335343516   -0.09843914319251    3.94161242176056
H           0.06448530598063    0.36605976872410    3.14573721836609
H           1.23250001360137    0.31602354550958    4.16327989422005
O          -0.32084079618187   -0.37795110083568   -2.82825303966153
H           0.67444771013654   -0.52070070090332   -2.66475236462255
H          -0.71287636357895   -0.41677478716421   -1.85370765317218
H          -0.38276049012186    0.69883111041763   -3.02270216141452
O           0.06745866077326   -2.23405209199050    2.33531190770438
H           0.71043216243379   -1.41500865795600    1.27986352466469
H           0.23972690345434   -1.67806304933914    3.12190973164032
H          -0.88941008095444   -2.10206309269864    2.14065582045095
N          -0.31901298105830    2.13430217158564   -2.90911107667454
H           0.30922766279143    2.61287161330248   -3.54130649842373
H           0.08186087277872    2.15348618470561   -1.96409238316365
H          -1.20800290793646    2.61636303109486   -2.89770538736782
