    26
        -50.46605465  Gyration_radius:  2.53148959609 Dipole_moment: 2.203
 S          -0.49040535378693    0.00771893259940   -1.99834811048782
O          -0.90128415075978   -1.37367430645352   -1.88141860076838
O          -1.57051911132312    0.94504646008357   -1.76648875134459
O           0.67405849131657    0.29927051552836   -1.16058654863394
O           0.00454230962590    0.23280593852374   -3.48525647157859
H          -0.79670374726352    0.09755935159430   -3.97982492212220
O           2.91190634545268   -0.57738258275999    0.13509959653234
H           3.67143523352803   -0.09507619267667   -0.19509443016653
H           2.16671968708910   -0.33109947654582   -0.43985940884695
O           1.68237125466687    0.25088472969888    2.43757818289135
H           1.50431899906624    1.14495517366970    2.08205840326453
H           2.31424413886129   -0.13902027702483    1.80477442018033
O           0.77265325229090    2.25270080573866    0.82161354845744
H          -0.17854311295570    2.35814841605967    0.94786334929154
H           0.86171185784123    1.74629174495810   -0.00039154701497
O          -1.40908427770808   -2.89511573854847    0.24075261734763
H          -0.93622460792350   -3.71946164336815    0.11563276214342
H          -1.33891732429775   -2.41305091145261   -0.61150460556333
O          -2.01722969125425    1.60236678753125    0.71540344130082
H          -1.88479153744410    1.41306913468565   -0.24777949477540
H          -2.90452187061211    1.95447160861496    0.79575921794507
N          -0.44063651064825   -0.57253180612651    1.15856378910441
H          -1.20212760339000    0.11126379059624    1.29429591541279
H           0.33713349231087   -0.40044055243031    1.86986977390219
H          -0.80828834350958   -1.54383298312355    1.11594102309827
H          -0.02181779917411   -0.35586691937384    0.23134686043033
