    26
        -50.46061526  Gyration_radius:  2.54381343085 Dipole_moment: 5.966
 S          -0.26017730695836   -0.04677240427058   -0.42494654268898
O          -0.31907825069543   -0.79551478153012   -1.65397903320823
O          -0.96072302355073   -0.84507832640333    0.70502614175785
O           1.13722786402832    0.16369787232918    0.01658964801398
O          -0.95677012234478    1.23289589225861   -0.47193440353881
O          -1.44444470730897   -3.19964384650595   -1.83759170744005
H          -1.04693863596354   -2.30627978053441   -1.90143670488969
H          -2.38905907920840   -3.08028602640607   -1.94324859100878
O          -1.25678931255934    1.51278842364747    2.11225869540752
H          -1.43839390359783    0.62275838295267    2.42770859733330
H          -1.34695661630550    1.45001233006683    1.13198644682957
O           1.99974455761213   -2.21827265633936   -0.84844236851700
H           1.61521082351270   -2.21629769421668   -1.72991695856137
H           1.86139588058438   -1.31392746788300   -0.51381017310386
O          -0.08899050052146   -3.19257635908793    0.48906454065825
H          -0.61407608524630   -1.81864246631729    0.67596749095615
H          -0.62508019602495   -3.48551605467114   -0.27528485218307
H           0.80601638238667   -3.01989764906758    0.11479942484754
O           1.19544770890526    2.02580273656061    1.64523394050413
H           0.27616280093826    1.87499361445890    2.05737548218435
H           1.29144390699936    1.19472022204776    1.00861414027126
H           1.00544815674191    2.81588855712475    0.90976891555689
N           0.51329547570952    3.57898226715085   -0.20953655503055
H          -0.12680775293500    2.85822731138495   -0.56293615426029
H           1.19131532336124    3.79591447782345   -0.92791471281493
H          -0.01842336756083    4.41202341542283    0.00658529292125
