    26
        -50.46836100  Gyration_radius:  2.53759620058 Dipole_moment: 1.209
 S           0.96121842311358   -1.07048276413032   -1.26401019821200
O           0.21254418580149   -1.21761815445899   -2.49564137190469
O           1.42418067482367    0.29765574754817   -1.05681236594310
O           0.26380490968572   -1.56729085066793   -0.09354844211550
O           2.25279619967528   -1.96859703815109   -1.43993799081360
H           2.37037509843524   -1.94285515546643   -2.38340321272491
O           2.57063516679312    0.89371625772882    1.25273885287385
H           2.16061041140236    0.60443973232038    0.40791211343256
H           3.03044615577588    1.70990562362122    1.04804071051022
O           0.88374982016320    0.93888764749199    3.33285015220010
H           1.57062837986404    0.97769762305453    2.62864275267137
H           1.16484696220726    0.25026941349977    3.93711567873360
O          -0.66787956018484    1.95219604394910   -0.78189170691003
H          -1.31911463364268    1.48601927967351   -1.33184694344130
H           0.18642399529616    1.53335976779156   -1.00144777507735
O          -2.62558097730882   -1.33512433000673    0.30185040023502
H          -1.84174986442305   -1.89224676856632    0.22867877400537
H          -2.66711719739210   -0.86486646484473   -0.54628319761187
O          -2.06580065112478   -0.02227982872926   -2.09667912556349
H          -2.56771428171446   -0.05271424180229   -2.91307029030644
H          -1.22054729055729   -0.50454456856932   -2.27756302943947
N          -0.82756773652726    0.37555607151845    1.34210627699823
H          -0.38004391235673    0.64276304271331    2.24362478542995
H          -0.25986242086970   -0.38079070107475    0.88346064664613
H          -1.77482368479034   -0.02076343231217    1.41975044745080
H          -0.83445817213391    1.17770806786581    0.65536405886502
