    26
        -50.47267769  Gyration_radius:  2.55445266531 Dipole_moment: 3.559
 S           0.22091216845538   -1.59983245148344   -0.50665350872892
O          -0.90961891275845   -1.76178505967900    0.39873809942862
O          -0.20995101526615   -1.10062686638635   -1.80566391934313
O           1.25439047749844   -0.76021459899782    0.09147798836730
O           0.87678074792927   -3.00170511800056   -0.71890278145607
H           0.14292238366271   -3.51681307318255   -1.10596151304128
O           1.56614525521561    1.78062547931471   -0.85186549493770
H           1.64065600791908    0.83406607107874   -0.63598394267823
H           0.65763386174173    1.88239387420142   -1.17671748819687
O           1.79053873700778    2.87339027903439    1.52263385359238
H           1.72800587610189    2.60081231095892    0.56724965300249
H           2.72447254176689    2.99199272284223    1.70075973328686
O          -1.08988550054259    1.32951734757832   -1.51190106806070
H          -0.76710180702692    0.40745922109217   -1.67781335088667
H          -1.56918503475852    1.59114742872189   -2.29993381625122
O          -1.56478004472142   -3.45956021586967   -1.62060624555550
H          -1.38179472788305   -2.68823135942151   -2.17364213566388
H          -1.81606660643838   -3.09111240987554   -0.76213042217099
O          -1.91593553318728    0.61383595950320    1.01306098180324
H          -1.74568132327136   -0.33283460525187    0.81870455681396
H          -1.78607302167965    1.06710851090454    0.16190819132181
N           0.43850791397991    0.67215053989925    2.14927244098761
H           0.48984624734774    0.28105354452651    3.08297015198861
H           0.84612409522765    0.00889445428938    1.43586952537362
H          -0.57728475767192    0.79166185264726    1.83532085665423
H           0.95642198134791    1.58660615155674    2.06980966434987
