    26
        -50.45805531  Gyration_radius:  2.64548818569 Dipole_moment: 2.648
 S           0.49319560978070   -0.59592281655568   -2.05222104186414
O          -0.09215476065240   -1.86399666561107   -1.66603751327088
O          -0.49162210862286    0.38442368554667   -2.45485111849506
O           1.40453007579147   -0.07236321564672   -1.03601511886879
O           1.40985342009062   -0.88803684081618   -3.31334948809861
H           0.78417643020419   -1.27455147840485   -3.91697847697166
O           2.80254034373877   -1.09635554363659    0.99192139937912
H           2.29971052125386   -0.82566272795105    0.19516230387236
H           3.72567390929356   -0.95916389923231    0.77296095012420
O           1.68504131638893    0.39512336626800    2.92356764994052
H           2.18766640261030   -0.15600239422121    2.28018091718297
H           1.53373457103743   -0.15679915480946    3.69199855402121
O          -1.42752104247697    2.27388497725316   -0.88522343941439
H          -1.65138357650101    3.02514941194827   -1.43526032050067
H          -1.09617382672139    1.57743261795141   -1.49967803527338
O          -1.53728623079157   -1.52482359145464    0.46359232050312
H          -1.52944955061773   -2.36314892814288    0.92813296805869
H          -1.05245905192032   -1.68148309483384   -0.38581105002882
O          -3.11568986697472    0.85312892482989    0.87761054716792
H          -2.94794864526939   -0.05666738704117    0.61121473105640
H          -2.76614245195546    1.40735402772898    0.16673113412903
N          -0.12805998988991    0.73840901071644    0.97010426698235
H          -0.78973326399730   -0.06600231120032    1.00641078010365
H           0.43355875598818    0.79819415530599    1.84661883422780
H           0.52260521576367    0.53892566960705    0.16990972663128
H          -0.65666220555060    1.58895420240833    0.74930853939339
