    26
        -50.46907705  Gyration_radius:  2.47075092027 Dipole_moment: 2.482
 S          -0.45292125147187   -1.37046713973934   -1.67766335258322
O          -1.61972832251268   -0.73478314511233   -1.10518761325975
O           0.13928281203757   -0.59264970612231   -2.74879159690616
O           0.50447084264058   -1.77048457300463   -0.65222851192364
O          -0.93278138914108   -2.72954003199724   -2.34521730802522
H          -1.26976471264405   -2.42007228811678   -3.17877632923231
O           2.41624034333920    0.12554765452603   -0.25375807371699
H           1.88804779879403   -0.66492098380143   -0.46353542403807
H           2.04130106835971    0.82630669742806   -0.80278674213685
O           1.49057941708969    0.70243349425595    2.17125494514661
H           0.86198510109304    1.38942762055244    1.89676034142500
H           2.02664484308151    0.51802225347652    1.36289555940340
O          -0.45704945147912    2.20757649047726    0.85538860875002
H          -0.61368215614859    3.15281524597060    0.84979520508077
H          -0.15884996106112    1.96806357231531   -0.04872363657780
O          -2.26908047869213    0.14118136294163    1.30266094596617
H          -2.24476866466096   -0.18284247349220    0.37806185978440
H          -1.80780606115753    0.99520218097595    1.26518678024352
O           0.49752142129167    1.68951456852119   -1.61679242369771
H           0.32061676911539    0.81349546509619   -2.05141410426128
H           0.41743551441554    2.34260332410373   -2.31448832622314
N          -0.15738770312172   -1.30969395204758    1.86103212802715
H           0.56401359526447   -0.57009252621439    2.13980699114756
H          -1.09910884265844   -0.81480777220562    1.78976955463169
H           0.08932006315818   -1.61826751877206    0.88447852146400
H          -0.17453058434242   -2.09356783047997    2.50227200120978
