    26
        -50.46944559  Gyration_radius:  2.48582572431 Dipole_moment: 3.852
 S           0.15137801299127   -0.94372329922525   -1.73562510155582
O          -1.24120800395499   -0.57906892108516   -1.59807387984373
O           0.91933716509531   -0.15103307809329   -2.66055235481258
O           0.79675564362152   -1.04486870152838   -0.41932281574708
O           0.16312253029504   -2.42349214834406   -2.32546151879242
H           0.84217047306850   -2.36880238523838   -2.98967648976806
O           2.45131111703508    0.66447688007607    0.68928115296827
H           3.35661176304860    0.35694139697777    0.62638757818882
H           1.89459824592398   -0.02085646890787    0.24879343350881
O           1.00841723896488    1.04343545039475    2.97353626581369
H           1.63412946260712    0.92240161698803    2.23110041351712
H           0.92746286622325    1.98978713396584    3.10388819501611
O           0.70645019763966    2.03206182228091   -1.09819742849442
H           0.79002039418717    1.35927436710076   -1.79649023941765
H           1.41935992632419    1.85066309558485   -0.47277879979056
O          -2.28091770500385   -2.15822577580615    0.30541801885497
H          -2.48072407037834   -3.02158576554799   -0.05688923877570
H          -1.97142886489071   -1.61685044211912   -0.44731840544484
O          -1.79613186036739    1.69918785822209   -0.20760697010933
H          -1.99148147048226    1.02672714528558   -0.87819920854485
H          -0.93785720626119    2.06976108357496   -0.50489747681452
N          -0.88213621482889   -0.13879365128855    1.43807603757139
H          -1.34455985270213    0.66250441932822    0.90483099782098
H          -0.21959647225442   -0.58104039480477    0.75458545166062
H          -0.33647424043515    0.21927966916867    2.24505890019855
H          -1.57860907548854   -0.84816091695577    1.67013348281299
