    26
        -50.46434065  Gyration_radius:  2.57506391948 Dipole_moment: 2.699
 S          -1.93765202704313   -0.33448621030774   -0.89131125422215
O          -0.56922848724926   -0.04232497665194   -1.34370233909554
O          -1.93554169102380   -1.48907941394468   -0.01031831443584
O          -2.57626371024344    0.83440527409140   -0.34763391647513
O          -2.74695143203341   -0.77303597422655   -2.17579310248721
H          -2.55805627468974   -1.70500484664247   -2.22227037994318
O          -1.58774061363210    2.37491526389287    1.54932589768174
H          -1.83992087287880    3.27690600407245    1.34598305585771
H          -2.07349031220974    1.81022905267805    0.90544911413041
O           3.03757670953251    1.34395370258090    0.19201488667886
H           2.88400754886030    0.77102780867945   -0.60211548969475
H           3.42489102060160    2.15694184185765   -0.13363931123580
O           2.23859427039623   -0.13177751510152   -1.85607382960364
H           1.33307891502769    0.14596612734271   -2.04268886914087
H           2.13199871198429   -1.03644650808018   -1.51348444342839
O           0.95908193032145   -2.25427375411745   -0.68507762340157
H           0.23612273783522   -1.65379998316815   -0.92443138884302
H           0.86724008916901   -2.40576598908541    0.26036513361600
O          -0.20963787679639   -1.57267186105059    1.94372950737561
H          -0.65199889459212   -1.77722511966912    2.76848787283569
H          -0.90838756864374   -1.60697799885274    1.24305311717339
N           0.51256752990591    0.82878518307790    0.92412639995783
H           0.13856456959220    0.56621549915386   -0.02125426835545
H          -0.10878619681281    1.57055656810909    1.30533663023710
H           0.43096530748431   -0.02466491172809    1.51117306581854
H           1.50896661713562    1.12763271709224    0.82074984900182
