    26
        -50.47201767  Gyration_radius:  2.51702031688 Dipole_moment: 1.474
 S          -0.28623785898221   -1.76822728652963   -0.88718512074445
O           0.35883404151571   -1.55596460190312   -2.16486018289538
O           0.56945042199940   -1.35000074565713    0.22363640177062
O          -1.61138274262234   -1.19487390500196   -0.78400249824437
O          -0.47399088928244   -3.33208551060617   -0.73562008418794
H           0.37288294839272   -3.66078025014452   -1.01762832169198
O           2.47380046298411    0.59478070755648    0.02018952714983
H           1.96287704128392   -0.22451713644148    0.13710580706294
H           2.14882515821783    0.95882298484076   -0.81696624148955
O           1.72557974877568    1.98253650333436    2.16472861649300
H           2.10976790896196    1.57137619692818    1.35117124136791
H           2.32328898384857    1.76227441303853    2.87986854070120
O           1.00092188324373    0.96398296607189   -2.31214176993849
H           1.23325313495551    1.17722444210673   -3.21748452607480
H           0.79144958258793   -0.00327773155595   -2.30264383580424
O          -2.64030201091741   -0.90640624558500    1.68639234350674
H          -3.55541542394342   -1.18816253699429    1.70242341158233
H          -2.31416852375100   -1.09772147391655    0.78407301986269
O          -1.34481736901436    1.48826247264912   -1.00129775963193
H          -1.65948823726636    0.57258360799834   -1.10430935657666
H          -0.52798554072962    1.53648864611506   -1.52817914943668
N          -0.53507800104539    0.75384387323165    1.41565717139706
H          -0.88542886249273    1.25874520292507    0.55651552173533
H          -1.33699750420083    0.46167027991402    1.98165521247185
H          -0.08130445214158   -0.12101886218750    1.05347463726486
H           0.18166610960246    1.32044395983020    1.91542739435121
