    26
        -50.47065005  Gyration_radius:  2.45362267335 Dipole_moment: 2.661
 S          -1.42620069279308   -0.35630050783205    1.22149419408488
O          -2.22656196587144   -0.57143945098811    0.02587384112450
O          -0.27776044563884   -1.25327369028930    1.25331161962705
O          -1.04673443843829    1.02250232067069    1.43118025858469
O          -2.35805394153906   -0.75516228182094    2.43361337833953
H          -2.85173688153316   -1.46490097312858    2.03966452225771
O           1.95390081873894   -0.06607248546831    0.30601643838744
H           2.03642651552178    0.76378925355632    0.80470270519485
H           1.18399970500274   -0.51137555422139    0.70745707240835
O           0.78912939367236   -2.87249167825821   -0.58420335903770
H           0.37523419852973   -2.46978227509386    0.20555452931407
H           1.69929485690948   -2.56211545935218   -0.56955340959373
O          -0.37360151482313    2.62514415483906   -0.63894575255880
H           0.29439776880732    3.11710250739888   -0.15178417970753
H          -0.81053812625646    2.06791646109065    0.03051618114551
O           1.35670218555490    2.14535961683040    1.83863665519918
H           1.55520282906788    2.23978565509408    2.77091863264772
H           0.45598563245766    1.76680229539827    1.78663234950054
O           0.99746894257902    0.80295163976019   -2.02568185541771
H           1.52482626138107    0.49357246809912   -1.25175926005241
H           0.48843881540468    1.57123365590073   -1.68081754896199
N          -0.68321966283722   -1.15832872934311   -2.01756926839639
H          -0.00663564759238   -0.31518363241792   -2.13981354516998
H          -1.15094619957815   -1.39698599346163   -2.88444870532680
H          -0.11844632046439   -1.95963592986158   -1.64290559136464
H          -1.38057207626191   -0.90311138710048   -1.26808993222871
