    26
        -50.47416914  Gyration_radius:  2.42069685115 Dipole_moment: 2.031
 S           0.22176644277178    0.17568843523438   -1.98106190952939
O           0.93570853997156   -1.00688577479880   -1.53699456872213
O          -1.21929463676879   -0.02385121982406   -1.97596531657984
O           0.63874145584453    1.37205659968738   -1.26951938682182
O           0.60886738364243    0.42441897163321   -3.49581086831652
H          -0.01567274652316   -0.13163148659320   -3.94835041206294
O           1.99069613208210   -1.17242195766288    0.90085536868662
H           1.74446124366668   -1.18050899255846   -0.04907282469045
H           2.16033344048355   -0.23804429216483    1.10461697533939
O          -0.82921368354167    1.16387470196197    2.10477456061143
H          -1.31429772941776    1.53939292381039    1.33386132783638
H           0.09440199590417    1.43439484186510    1.96655006562275
O           1.72970536898212    1.55694893826399    1.10344024388199
H           2.28377631411381    2.33851223443660    1.12215666062927
H           1.35999128814072    1.50666418516641    0.18946994550241
O          -1.32056538406804   -2.24363273408536   -0.60754849286218
H          -1.47484414718020   -1.41912848127503   -1.12072957889657
H          -0.46043434734431   -2.53539725580948   -0.93199273118510
O          -1.74144349835871    2.02895078912647   -0.24703802714542
H          -2.22910101628834    1.37655645665758   -0.76086246674886
H          -0.85595435335689    2.01407352146421   -0.65357558896485
N          -0.47812494792479   -1.41186155759613    1.77234889190754
H          -0.73720586269605   -0.39075771767226    1.95873595669589
H          -0.96416915774544   -1.76210031665523    0.90215399114997
H           0.56495563177951   -1.41958751215465    1.54718106612065
H          -0.69308374617388   -1.99572331045963    2.57237711854706
