    26
        -50.46881778  Gyration_radius:  2.55367857739 Dipole_moment: 1.965
 S          -0.39018700375461   -1.18045934793041   -1.61005780031425
O           0.13388888669970   -0.38473584734444   -2.69069161152586
O           0.60558831973848   -1.41955642459011   -0.56148896749289
O          -1.63024176602834   -0.68103625659574   -1.04063275209912
O          -0.73063561326642   -2.60237883031624   -2.22633662086363
H          -0.16720483295922   -2.64332043692726   -2.99239947914984
O           2.67214024663934    1.99042063975287    0.26121982891755
H           3.45639036017859    1.53438460817656   -0.04698908828963
H           2.10483458663987    2.12061176006222   -0.53632335979431
O          -0.45638092655254   -0.79713203842213    3.19898790865493
H          -0.06114829924083   -1.37732022305091    3.85047368377413
H          -0.86648209735390   -1.38691670359659    2.52074412549897
O           0.89467232183315    2.00730293711675   -1.72384099331696
H           0.72077204818584    1.16053078206436   -2.17869122977105
H           0.04287290379283    2.27639256938602   -1.35985140076991
O          -1.26024581282059   -2.28972038514195    1.13331953956953
H          -0.43978405277862   -2.26067093940854    0.61183854676735
H          -1.89066919346752   -1.84065058796234    0.55506278106521
O          -1.50773790515420    1.78230054227581   -0.21591785516935
H          -1.63730432622519    0.88288831905053   -0.60678639286227
H          -2.37843020417216    2.09808800641460    0.03062099514860
N           0.56563651576391    0.61242053029680    1.15010738137569
H          -0.21594440310185    1.20518732919579    0.81669082511514
H           0.64148011035889   -0.19804538337463    0.48336244431208
H           1.45376863139348    1.15749848803104    1.08528415732701
H           0.34035152560882    0.23391688278226    2.09229536389232
