    26
        -50.47165519  Gyration_radius:  2.51522320045 Dipole_moment: 0.585
 S          -0.07441045902812   -1.18679509655267   -1.63236147589108
O          -1.40872754960442   -1.24188305061554   -1.07350255350469
O           0.08908136366510   -0.20606314722933   -2.68452154719152
O           0.94321360139572   -1.03350640811364   -0.59335655047023
O           0.17913557567278   -2.60253490062183   -2.29247796187757
H           0.98522948139385   -2.45543895190853   -2.77550448989221
O           2.18005525181898    1.33379072064379    0.00159295041897
H           1.97831108360611    0.41628169890422   -0.24563618696156
H           1.52263276242951    1.85732654726096   -0.48236774610710
O           1.69434496313355    1.36088332433031    2.62242595852380
H           2.02444903806969    1.38765576283503    1.69105624030528
H           1.59929605144234    2.27256371833707    2.90032182681607
O           0.01600456258870    2.13082874034657   -1.55275535985385
H          -0.08360262304740    2.79849081455551   -2.23369836649106
H           0.06311021895108    1.26195693100855   -2.02786669382549
O          -1.62094695541792   -2.52348980833660    1.28331135581378
H          -2.20724151430070   -3.27747050990720    1.21640225180855
H          -1.58147042992674   -2.12950489760406    0.38912339075822
O          -1.89144642967852    1.12410632495841    0.13214827224568
H          -1.30529819129755    1.68809304490770   -0.40251762968432
H          -1.99952513248029    0.30934285099268   -0.39068748920022
N          -0.22000209160875   -0.25565658524477    1.66610625480542
H          -0.94823883801426    0.38397373356060    1.24636443276649
H          -0.68322993758891   -1.04859464075594    2.11617092470023
H           0.31302237515723   -0.64010677595699    0.84666021604811
H           0.43625384265854    0.27575057019254    2.27556998594454
