    26
        -50.47108515  Gyration_radius:  2.42269821133 Dipole_moment: 5.149
 S          -1.05393610467203   -1.36030479846792   -0.76226714891130
O           0.03711374336032   -0.97515321093092   -1.64648232505560
O          -0.53841088278335   -1.92139408807573    0.48120440453969
O          -2.01970135510291   -0.31020113112589   -0.54198459152361
O          -1.82192825091088   -2.52369866288783   -1.50485336647131
H          -1.10881925642562   -3.04066229778927   -1.86294640378354
O           2.66106059789947   -0.45924349640483   -1.37491142301271
H           1.78866371573460   -0.76386248262762   -1.68851264103646
H           2.63899069715947    0.49647877153879   -1.49018197237603
O           0.86150893857207    1.43532402748485    1.65362447825068
H           0.79539832882280    1.69185731203151    0.70339939505191
H          -0.05421147729290    1.19791288875042    1.91329810034878
O           0.51584732988640    1.62304603571984   -0.98046057648583
H          -0.31822299413206    2.12712517846398   -1.04154945680677
H           0.28304055073560    0.73046743045002   -1.28964637674704
O          -1.57912696394862    0.35244373408807    1.98967285258431
H          -1.82203679580123    0.13190969057703    1.06771825056460
H          -1.51479045363736   -0.49550890996865    2.43323780124608
O          -2.07593252406042    2.40341113349357   -0.78953506986695
H          -2.32280851730328    2.65854848499794    0.10220953703600
H          -2.24422717468285    1.44781376468346   -0.84526901402286
N           1.80339236332756   -0.90950389806671    1.11344393130105
H           1.51447596387291    0.07720363019978    1.46168676965138
H           0.90007631166507   -1.41317620284145    0.90045403173075
H           2.31699323856490   -0.78692305384009    0.20304907269693
H           2.35759098115247   -1.41390984945242    1.79560174109794
