    26
        -50.47398634  Gyration_radius:  2.43816044944 Dipole_moment: 2.226
 S          -0.17901730267469   -0.67504289086903   -1.78987578860002
O           0.02866563232409   -1.63923805543158   -0.71048728478690
O          -1.57804574569008   -0.45165730187113   -2.07031085293572
O           0.58833883794393    0.53302845699551   -1.55871932682331
O           0.42512098679795   -1.33669930007572   -3.09408936325498
H          -0.33154985609112   -1.82148748392830   -3.40316848152950
O           2.91975840192272    1.09119930009111   -0.42438868595530
H           2.76099289186952    1.96107007583741   -0.04957452154388
H           2.17172114876162    0.93143362302200   -1.03601634406851
O           0.16485177684616    0.30664150906323    2.55063778955178
H          -0.60142522050946   -0.28159003797459    2.35268544495346
H           0.01617520386442    1.08616037647570    1.96761070571201
O          -0.33531086523273    1.98392856226684    0.53091605135298
H           0.03436900798690    1.54910187601837   -0.25830599306365
H          -1.29258328260623    1.87359749699543    0.43644684977080
O          -1.70687164536504   -1.16451924204094    1.36237772555210
H          -1.17479943258304   -1.48997850034765    0.61717778596898
H          -2.27902196011055   -0.47772664426824    0.98620836318881
O          -2.79381833627313    0.88618568898367   -0.17263365167277
H          -2.37667392904587    0.41641382473539   -0.93273507904589
H          -3.68207951344132    1.11389016586579   -0.45095338391338
N           1.87267827003314   -0.89763456558289    1.03783287626891
H           1.23937891981264   -0.41284432775512    1.78409027429848
H           1.21121788402180   -1.28816277450693    0.31899131420039
H           2.45388512652569   -0.16535543038571    0.56450912728402
H           2.44404300090884   -1.63071441131889    1.44177444909729
