    26
        -50.46935578  Gyration_radius:  2.4773277674 Dipole_moment: 3.241
 S          -1.69476078168341   -0.28329092347321   -0.52857436035766
O          -1.49162828753583    0.30878704088370    0.79829993052998
O          -0.47725078637353   -0.14233044354704   -1.32344153026776
O          -2.18186059691455   -1.63282919911087   -0.47409048562469
O          -2.78858105670682    0.60054824977604   -1.24197012906908
H          -2.38576935350712    1.47240830566156   -1.28026752195452
O           1.72429473293372   -2.03333154499123   -1.28205476190347
H           1.03618315632599   -1.56743571399939   -1.77133307650771
H           1.23814789172895   -2.55190829409323   -0.62345925272265
O           0.44639104686940   -0.85011079066260    2.24201025184586
H          -0.37373890315110   -0.39709177817034    1.96965913710176
H           0.35222806847141   -1.74701801125727    1.87937329542145
O          -1.13031183233026    2.67314762860557   -0.11770188044054
H          -1.22233552048926    1.79302349370686    0.33103437525732
H          -1.56082795036836    3.30852209914473    0.45900196070786
O          -0.17079905645939   -2.96464249693845    0.57897169614588
H          -0.94010456113681   -2.50287694477954    0.16991078837501
H          -0.46493619410259   -3.86155876073799    0.74949823946788
O           1.58964121203265    2.94615796447931   -0.15281937300805
H           1.83770897891465    3.32706236554748   -0.99646700055832
H           0.61040193521176    2.91263775364780   -0.14636003724808
N           1.64794558070867    0.25548308579531    0.16528688947177
H           2.33181257314938   -0.38387855955988   -0.25196340655990
H           0.78364652161204    0.17035743437405   -0.44297118073994
H           1.35642714507664   -0.10207180415412    1.11801952045662
H           1.92807605773086    1.25223984385411    0.17240791219202
