    26
        -50.47014189  Gyration_radius:  2.42752300709 Dipole_moment: 2.264
 S          -0.38428393986937   -0.33351134296053   -1.94048582403788
O          -0.93063442426734   -0.85467748913898   -0.70036593163854
O          -0.79242179907641    1.02752030024905   -2.20885521706360
O           1.05732766270573   -0.53378216381017   -2.01515248265435
O          -1.02111377596082   -1.22436807607013   -3.08942599359803
H          -0.81178266137136   -0.73213898605823   -3.87660306599867
O           2.04934895099597   -1.75221079772790    0.06924467025058
H           1.59290360003062   -1.39048154132649   -0.72837020025342
H           2.98410751425165   -1.59364690791256   -0.07607569436861
O           0.41417601173783    1.81396688462183    1.50703637540415
H           0.91121156099911    1.95663685614560    0.66951405739734
H          -0.52626209787986    1.78792614518533    1.22938740441471
O           1.40298086809273    1.90578951240654   -0.97121452587981
H           1.68068115535452    1.03559621067271   -1.29526597647978
H           0.57011089347644    2.03546494961990   -1.45203687796226
O          -1.85118210250828   -1.40422972206618    1.74828755913042
H          -2.36383139952041   -0.59062624120187    1.79802392657752
H          -1.65487827377331   -1.51284636055536    0.80159098805278
O          -1.98432214233831    1.31659312581532    0.37470976160600
H          -2.14145458656483    1.93791841405897   -0.34014608425074
H          -1.63421797050189    0.51906138378296   -0.07742838495470
N           0.70071612771807   -0.69323028696923    2.13683825735353
H           0.65207220868747    0.36771214974447    1.93677105094280
H          -0.28847411202737   -1.05516108707663    2.10067316493765
H           1.24242547719185   -1.14991954880974    1.36248371410589
H           1.12679726441383   -0.88335536062020    3.03686530896411
