    26
        -50.47083693  Gyration_radius:  2.43544755136 Dipole_moment: 4.376
 S           0.43360281374412   -0.89171170451332   -0.88999978728750
O          -0.82689110326563   -1.57718440824054   -1.08324544022943
O           0.34064012706420    0.52385000924585   -1.25883681770858
O           0.94679795806579   -1.03851617385929    0.46864607298908
O           1.50542293008440   -1.53790617337913   -1.82198627236772
H           1.09216210801214   -1.43966657950254   -2.70242695470355
O          -2.46216143030993   -0.67945881994509    0.88273432394287
H          -2.00273450950937   -1.06715389198493    1.64794736003587
H          -2.04118501471831   -1.08914422811776    0.10579706882078
O          -0.31044258615023   -0.85518909480404   -3.60355603417193
H          -0.87040895597159   -1.26989388907390   -2.92764712963826
H          -0.27207081414147    0.07513398436410   -3.35846486355978
O           2.12900464446891    2.26734269354984   -0.33342846045184
H           1.99016086154483    3.08614774036274   -0.81232598382184
H           1.56097644848119    1.59587441805382   -0.77171620906326
O          -1.35950815243811    1.67195924436466    0.51789435452792
H          -1.95164696344228    0.90140426127008    0.71846681104788
H          -0.89575509630023    1.40740454191805   -0.29712488385985
O          -0.57935431732959   -1.83717977144433    2.52574806452594
H          -0.66188419641539   -2.79031711626402    2.58414448899164
H           0.02777185178453   -1.66194037774245    1.78109043127014
N           0.85537595589390    1.25439713437498    1.77292121195972
H          -0.13948645264048    1.52714123465317    1.43762729947178
H           0.97578891520419    1.29041903653658    2.77861891638149
H           0.99284997559584    0.28225331514976    1.39367934161243
H           1.52297499266672    1.85193462499477    1.24544308128693
