    26
        -50.47016665  Gyration_radius:  2.513329808 Dipole_moment: 2.309
 S          -1.19592304465144   -0.55838676302557   -1.30447551381003
O          -0.57502144747580   -1.69472969391589   -0.62500941037932
O          -2.03025950452246    0.19381944239739   -0.37549046215981
O          -0.24558313124846    0.25935014663423   -2.01147847073318
O          -2.16843536359662   -1.17754451628239   -2.38490790490390
H          -2.69043932290557   -1.78883589463777   -1.87477947756116
O          -1.60756290839855    0.56119763518686    2.32308047214377
H          -1.65514388888214    1.52191595969260    2.31458990477904
H          -1.94377465192916    0.29166439519466    1.45055586654509
O           1.99089429422429   -1.54864334333571   -1.43346984539731
H           1.06281162563209   -1.76483481568774   -1.23159825922301
H           1.94528405980249   -0.74444544136606   -1.95726247196985
O           3.02491394152054   -1.62320769086783    1.07153446446271
H           3.28530280784019   -2.52723257582617    1.25072506421015
H           2.81144965967167   -1.58657199174624    0.11390828187289
O          -1.55564008197150    2.73794649431203    0.24138434566776
H          -1.96803667509447    3.33985140738109   -0.37934757640611
H          -1.80475644455083    1.83297753080732   -0.04601640353126
O           0.96789904070232    1.85919207640132   -0.26516776580593
H           0.64854762448714    1.39015274699612   -1.06054333199912
H           0.21367757956832    2.41276086976674    0.00978309458145
N           0.70798921078461   -0.28293592434323    1.26474891539390
H           0.20944803650560   -0.91755896450397    0.60219249608186
H           0.94342163323222    0.60632578767782    0.73049122389319
H           0.04154188693574   -0.04283177313972    2.02155509692077
H           1.58739506431791   -0.74939510373440    1.55499766735544
