    26
        -50.46549772  Gyration_radius:  2.51631732255 Dipole_moment: 0.605
 S          -0.40536314994922   -0.82082648729106   -1.68720301987566
O           0.22551384504217   -1.80102716957352   -0.80798786507749
O          -1.78836757540577   -0.58453906669470   -1.32020536628862
O           0.38050118374370    0.39106676795698   -1.78892358524664
O          -0.43303105927726   -1.45325353178660   -3.13495668975907
H          -1.14112392262173   -2.08473634902704   -3.06478696007323
O           2.24026942261013    1.46807184494033   -0.11398675432229
H           1.75090439344472    0.93100178874243   -0.76170074817387
H           1.76161483690019    2.30305902352883   -0.08257398744505
O           2.47864788209427    0.31300874686048    2.26402378350620
H           2.47327418229468    0.82052898058165    1.41659270157978
H           3.28421788020648   -0.20583815632900    2.25699389294212
O          -0.27898205292829    2.79485869460532   -0.87018554153848
H          -0.76389591042065    3.33120340037504   -1.49864349126073
H          -0.05875723930623    1.95708613272815   -1.33084152672374
O          -1.86252678594279   -2.56852905495594    0.79936143327576
H          -1.14073675761317   -2.53511691849545    0.15344651221717
H          -2.54260753773666   -1.99637211682641    0.43468986512729
O          -1.60997292403066    1.05939339642491    0.76208048939090
H          -1.18398377487379    1.84622954739771    0.37618967000841
H          -1.85707924721001    0.50304872862556   -0.00500363990104
N           0.10671165865988   -0.73656120233475    1.62756800353220
H          -0.56437415354676    0.06774561164612    1.43201508057596
H          -0.37517042375367   -1.43377322107808    2.19374800992770
H           0.30573901647288   -1.17503780163099    0.69519676825848
H           0.99857819302987   -0.39069157835499    2.05509297531560
