    26
        -50.47284631  Gyration_radius:  2.45087436164 Dipole_moment: 3.009
 S          -0.46311765722226   -0.62693291365918   -1.07836055793419
O          -1.08054775047684    0.34525950835089   -0.14696008970107
O           0.97685878461809   -0.37992766159080   -1.15331478163977
O          -0.76208177257963   -1.98125636446330   -0.69221226767290
O          -1.07101204108383   -0.36986280191017   -2.47724540127029
H          -1.12803042747313    0.62133416147791   -2.54091347982920
O           0.75855901616604    1.99882362272358    1.01325359498394
H           1.22123751596273    2.39291619918631    0.26348051878056
H           0.02225419478359    1.49836243211909    0.61674598279569
O           1.82565156747231   -0.43310747267330    1.38552400775863
H           1.69250006187157   -0.60881721422408    0.43201126746863
H           1.72552148781370    0.54102469044442    1.44782707300588
O           1.57731943959362    2.09262543517733   -1.68052087573449
H           2.26928028281492    2.14206868392232   -2.34118966869507
H           1.42661347533943    1.12765378101677   -1.50708499078003
O          -1.33859934686013   -3.37342173588335    1.45444864716911
H          -0.72262968094427   -4.10844600482153    1.47163768698275
H          -1.26474234238586   -2.98745930992676    0.55330947774692
O          -1.08400806170502    2.19580218603378   -2.16110183954217
H          -0.12877696848201    2.39004805459807   -2.08169356561493
H          -1.38871058741592    1.99938371709595   -1.26563544159408
N          -0.62721655241320   -0.89843803574734    2.13373355128511
H          -0.93264420034748   -0.46171386873901    2.99724567194454
H          -1.01517027276234   -0.39611062492588    1.29304553957618
H           0.43639824472333   -0.81551905018690    1.99682649879208
H          -0.92490637871327   -1.90428943405740    2.06714345160221
