    26
        -50.46816085  Gyration_radius:  2.54199836083 Dipole_moment: 3.849
 S          -0.03202987959274   -0.49777911119718   -1.92164640397002
O          -1.36256882573597   -1.03167184704557   -1.71153249387655
O          -0.05771384929092    0.94517405103706   -2.12218213992467
O           0.89706226103393   -0.90831112536265   -0.88259183746020
O           0.52705814523605   -1.11272895493461   -3.26789453143528
H           0.06044719658365   -0.62728473927939   -3.94109500709091
O           2.61228534560478    0.51391575732895    0.79323381753988
H           2.25261640374744   -0.12780067227643    0.16310872068196
H           2.32572316870777    1.37835285382832    0.43984806573692
O           1.33534345378125    0.14331409961409    3.06433233854011
H           1.90746337067159    0.35694246465510    2.27833927565223
H           1.85147867262690   -0.44634283976706    3.61475720506814
O           1.28644680208457    2.55367371921095   -0.40587249716635
H           0.53360132862056    2.94003438594254    0.04683597397641
H           0.91445453292872    2.02894588776958   -1.13761667517158
O          -2.31385986784839   -2.31154742371639    0.42713182191748
H          -2.37610267508252   -3.24769884672879    0.23510939277032
H          -2.04800737177040   -1.87977073671940   -0.41333674595932
O          -1.78702455139342    1.40701088493881   -0.17426411118124
H          -2.60579217732106    0.98754473407678   -0.44896132234478
H          -1.18938976722468    1.32788671456225   -0.94825855319043
N          -0.55181612951149   -0.48189349895865    1.29634763362598
H          -1.06518617213738    0.36538681933582    0.96506477156092
H          -1.23013860574128   -1.25303276411692    1.39464215740667
H           0.09140934487872   -0.73780154224807    0.50751243321022
H           0.02423980615224   -0.28451827993623    2.14898867108753
