    26
        -50.46872285  Gyration_radius:  2.46440999729 Dipole_moment: 3.355
 S           0.17111679301921   -0.13743449317481   -1.68823225697222
O           1.12086896749254    0.57965866039709   -0.84700086119643
O           0.49381788606207   -1.55565812719660   -1.75826431593225
O          -1.20549425169752    0.12581701954289   -1.33570745977513
O           0.35791877624502    0.42195331742808   -3.16133586229334
H           1.10458503528306   -0.05179321979290   -3.51464126974327
O          -1.31617143818016    2.85060736603052    1.48739109503024
H          -1.09217262932881    3.71788760007292    1.82794411763114
H          -1.16490489549652    2.88977866132917    0.51462941030479
O           0.45927969845539    0.86727517620886    1.74689235940873
H           0.75721614387405    0.84529848869179    0.81576581675076
H          -0.24575088279736    1.55191946026405    1.77687794583336
O          -0.59845427863985    2.71133349208719   -1.09533689162261
H           0.29272995102789    2.34212596784323   -1.04002745229701
H          -1.13823808950289    1.94191216754768   -1.33690745348002
O          -1.62671557519363   -2.19168576664918   -0.16876595815955
H          -1.78723795674336   -1.29409613804369   -0.52217926391470
H          -0.98121617222403   -2.54426252662257   -0.79700689724715
O           2.14127275408886   -1.87716978477837    0.26926013528351
H           1.60303652841387   -1.88008432700621   -0.55364125021957
H           2.50792613461720   -0.98820161592169    0.30443498144239
N           0.01508520751466   -1.68515718511921    1.84757184459245
H           0.92445796630402   -1.93865038764323    1.37530401552630
H          -0.75622281847711   -1.92943239377536    1.16257626384339
H          -0.10206132544698   -2.15421016676606    2.73818309017612
H           0.06532846133113   -0.61773126498294    1.95221613704674
