    26
        -50.46644285  Gyration_radius:  2.48566469639 Dipole_moment: 0.921
 S          -0.66976648927462   -1.24325802055200   -1.20528317241436
O          -1.72578320533279   -2.03195442856088   -0.61186802960751
O          -1.07149105965287    0.11192444879958   -1.53888855548642
O           0.55506083033125   -1.25126923473982   -0.40949065379122
O          -0.30270799896995   -1.96520573725983   -2.57474632529706
H          -0.89808978243831   -2.70727532887382   -2.60829512696132
O           1.74766904908937    2.33883364739752   -0.26989925856559
H           2.20845280829000    3.12418336371774   -0.56702243372037
H           1.68704798989106    1.73499518561345   -1.05452445368453
O           2.33587915995897    0.22756639559196    1.50099868480933
H           2.26279302117046    1.06067483608060    1.01169561775479
H           2.18520123063064   -0.46293709664391    0.84794602295684
O          -0.88833356644531    1.98995680729011    0.38996692348217
H           0.01449362914728    2.31197340460826    0.20614039059167
H          -1.12211206435562    1.44399658566115   -0.38536133986767
O          -2.52348650931970   -1.67318963398093    1.90033677239931
H          -2.27107446044126   -1.92584906815698    0.98465841245072
H          -3.43146345409608   -1.37032594710676    1.84643593012763
O           1.41991960239862    0.62155211866785   -2.25913639962924
H           1.72536297926593   -0.23275688628371   -1.93836281014260
H           0.44758235142165    0.55299136396382   -2.20151884365250
N          -0.34381152672730   -0.13090248912203    1.82765088215646
H          -1.17483686172057   -0.65721985568745    2.16707149326600
H           0.05409616088293   -0.66404294257494    1.01349907775065
H          -0.62688116349618    0.81418631147453    1.41738727771821
H           0.40627931979911   -0.01664780932475    2.51060992737795
