    26
        -50.46483951  Gyration_radius:  2.66167779082 Dipole_moment: 1.923
 S          -0.43611682943782   -2.04223285369171   -1.00615279810621
O           0.22903432495234   -1.24252064880063   -2.01885292387042
O           0.42222944500691   -2.30418501160195    0.13916352283538
O          -1.72525351989351   -1.48749236485458   -0.62242516098671
O          -0.74911845811889   -3.45328536933871   -1.65662540484995
H           0.11692245747430   -3.84449806440646   -1.71072170164250
O           2.83686612275934    1.76578667428672   -0.21889010115048
H           3.35769503223957    1.10977448621351   -0.68552028147922
H           1.95588127126586    1.74701132207920   -0.62952122694291
O           2.42126492626437    1.26274601941794    2.40918598089334
H           2.69890008489258    1.48291739271858    1.49429724709351
H           2.50309768255737    2.06935809389413    2.91898817137367
O           0.30033904120766    1.19176218601263   -1.11716004332652
H           0.37471622376478    0.31439921459991   -1.56920252998853
H          -0.63785442564142    1.43492531492018   -1.23442109611470
O          -2.41113953898274   -0.07679121577033    1.58104141689139
H          -2.80121501890905    0.65937466923048    1.09988246139019
H          -2.33076490676497   -0.78898407749041    0.91938363231653
O          -2.38515050154677    0.99030054177173   -1.28089300844562
H          -2.19519616407950    0.04037838007910   -1.10468284408085
H          -2.81625258306285    1.01726904140161   -2.13599524555178
N           0.25998301453944    0.03693429458744    1.31570677277081
H          -0.70906043551180    0.08563080494958    1.69776614837868
H           0.43230822811073   -0.95558768487549    1.01185834242952
H           0.29717768053575    0.61022096720871    0.43660527118828
H           0.99070685638233    0.37678788745941    1.96718537897361
