    26
        -50.47052773  Gyration_radius:  2.48013958988 Dipole_moment: 1.401
 S           0.27882683380280   -1.55273878515709   -1.26116519838954
O           0.10955529966222   -2.22834020421822    0.02006576861202
O          -0.98589948436275   -1.24669967007922   -1.89788452740719
O           1.15567037464829   -0.40146164396490   -1.14718636656771
O           1.02322628890500   -2.57026257565899   -2.22122721263444
H           0.32402056031465   -3.14048486590655   -2.52500622344793
O           2.44264399731473    0.94051932173254    0.81995050203148
H           2.27068624515257    0.45673641407234   -0.00605474445469
H           2.08044139483923    1.83719561230719    0.66675662460912
O           1.12305796335916    3.19212818501348    0.05936616800442
H           1.52968452942041    3.72822620921613   -0.62321301963161
H           0.37380756180566    2.73741569406045   -0.35606368948110
O          -0.69324165898632    1.46467814246843   -1.13305697409141
H          -1.35924440007333    1.15055355259034   -1.75044716632628
H           0.02370084265734    0.79401490511588   -1.18965544327769
O          -2.58724015969548   -1.47508562217116    0.20816233262040
H          -2.09279203218387   -2.18454175625041    0.62786393416112
H          -2.14891722432804   -1.36571285219372   -0.65942262501795
O          -1.71525025540595    0.79473143151037    1.32602343127294
H          -1.43536122615652    1.25045356630320    0.51103881714160
H          -2.22978394176783    0.01766812877930    1.01143276404286
N           0.50909300189064   -0.44599182120009    1.93412738468648
H          -0.38918508166317    0.12847689815053    1.83040659656605
H           0.42501311133341   -1.23935188556823    1.24755506251625
H           1.34157784327590    0.14822916327962    1.62724447870029
H           0.62590960620250   -0.79035553223534    2.88038932576650
