    26
        -50.47007289  Gyration_radius:  2.45430098995 Dipole_moment: 3.587
 S          -0.34611488803038   -0.97651757410254   -1.36633230467562
O          -1.28196653598744    0.06240153566492   -0.89996808799538
O           0.93960259931013   -0.80516773430427   -0.65530320281640
O          -0.88038654583331   -2.29490561973774   -1.18913279073248
O          -0.06849764815396   -0.72270492066037   -2.86850227516493
H           0.52917200138568    0.07210849647074   -2.89615525302589
O           1.53493614715426    1.39079085317917    0.74871947354214
H           1.40600408469497    0.57631278000457    0.21998465334691
H           0.93064553596289    2.03829621055077    0.36151862464271
O           0.69505086480911    0.44448102887175    3.06115907511433
H          -0.03502936545686    1.00873211756137    3.32138150513525
H           1.12243876606525    0.88377593542581    2.27987485641742
O           1.47612981799326    1.35191765092417   -2.56687586460857
H           2.11689179379966    0.98551735289532   -1.94998119067390
H           0.89052059338043    1.93384543307211   -2.04031635122137
O          -2.44491442063338   -1.50955193584128    0.87037322975254
H          -2.20172746903621   -0.78111963215930    0.25826945633087
H          -2.51944964156048   -2.26794967484628    0.27892162016508
O          -0.37848817704958    2.47821927611245   -0.94344203020405
H          -1.05792940204556    3.06516652408088   -1.27791761295888
H          -0.78784226600038    1.57140112772317   -0.90708373101485
N           0.07925671248696   -1.72255822098419    1.65251131368362
H           0.53113232915735   -1.47613310507162    0.72708421937874
H          -0.96844771419281   -1.72210228957356    1.46805915106757
H           0.39835540805105   -2.63003008008141    1.97447997059686
H           0.32065738973094   -0.95422551517765    2.33867352591924
