    26
        -50.47016226  Gyration_radius:  2.50338460451 Dipole_moment: 3.078
 S           0.73025421818847   -0.54354826004378    0.13495577580277
O           0.27010092898829    0.48364036393774   -0.80674555886984
O           1.32056315006161    0.06916733116734    1.31860010916777
O          -0.34155879464617   -1.47105342909212    0.46087099740095
O           1.81184368571227   -1.39317626560753   -0.57352920006908
H           2.56753082702896   -0.79428925344132   -0.83001112883388
O          -2.55348776103240   -0.26000244235461    1.39862474669681
H          -2.09081291725999    0.48660108165794    1.82987463628634
H          -1.84284886222599   -0.91661395532133    1.26988457359239
O           2.29715876734919    2.15438442845483    0.01291077278107
H           2.02078818354448    1.51064749437664    0.69504365261107
H           1.54850584197741    2.16523240172529   -0.59449582482457
O          -1.72240968551963   -2.40960776637160   -1.58241298725754
H          -2.15583894524813   -3.21806763391228   -1.30404006490829
H          -1.08501626699802   -2.18371862537524   -0.86692465353686
O           3.76351145557512    0.24905271839030   -1.05832214782929
H           3.33467320103233    1.08547725997222   -0.74220581079222
H           4.47563664869213    0.06180467699306   -0.44305337656197
O          -0.71498649356590    1.48733969571585    2.25811274918594
H           0.05400193323985    0.97583238746184    1.92728497925735
H          -0.50013339084757    1.73378623044553    3.15959984446046
N          -2.27139122807986    0.16885620118282   -1.15968064819778
H          -1.22831638365815    0.40147153789456   -1.10201325717182
H          -2.78952048860753    0.84396922439443   -1.70955816733763
H          -2.30990528551024   -0.79431046273496   -1.55354586927664
H          -2.58834232819908    0.10712506048276   -0.13922414177006
