    26
        -50.46521663  Gyration_radius:  2.60301109496 Dipole_moment: 2.035
 S           0.18584213200495   -1.41874766836221   -1.70740246361742
O          -1.03287109076874   -2.00083354360747   -1.18417648301236
O          -0.05764865450095   -0.35430457571776   -2.66293026751732
O           1.09815815235080   -1.01383405422029   -0.64372455434932
O           0.94319613704507   -2.56538134890383   -2.50146841652025
H           0.32230931553923   -2.74574628316480   -3.19892081951041
O           2.05466370285215    1.43006505876827    0.05275732824163
H           1.96183538293403    0.50352044579553   -0.22923712539022
H           1.43533785294894    1.90713689486717   -0.51775973560929
O           1.46553719600642    1.16930953673003    2.64575811574406
H           2.27951624194879    0.97292367333098    3.11024588977493
H           1.72968156807927    1.37478873991213    1.71602007446320
O          -0.07130485426653    2.02576379236863   -1.66689348377890
H          -0.28123415729702    2.59798209528865   -2.40688889593333
H          -0.05354203891923    1.10347839319102   -2.04409856149263
O          -1.84788614201279   -2.59839045572568    1.26172839873095
H          -2.80229638516872   -2.66750550997276    1.20823623457059
H          -1.53722227451111   -2.50813191339929    0.33208571369261
O          -1.56086695439970    1.91663216479208    0.55994532900985
H          -1.10592746313776    1.98511905942007   -0.30768435695996
H          -1.18774859185857    2.60784414048358    1.11173633000866
N          -0.39660270634218   -0.35171432946116    1.43963018250653
H          -0.99029019689552    0.44661666536655    1.11420906188552
H          -0.98280608635892   -1.16705812449858    1.70140832484020
H           0.20457750837089   -0.65849333191498    0.63312802227527
H           0.22759242640409    0.00896047867353    2.18429617794474
