    26
        -50.47267775  Gyration_radius:  2.5543626446 Dipole_moment: 3.564
 S           0.52157163378665   -0.90409354033827    1.33247061004070
O           1.03675085874551   -1.82495905708700    0.32803988026403
O           1.37452743412387    0.27059009071426    1.45944644532759
O          -0.86220201807076   -0.52049172652438    1.07040435119849
O           0.50816422678421   -1.64475525064182    2.70793087633249
H           1.45128394740827   -1.86501718872196    2.83328778689861
O           1.24032053576398    1.72147325198144   -0.75656435856348
H           1.48805601693888    1.26847800470731    0.07792040368790
H           1.16243009562049    1.00583352965429   -1.41120951793190
O          -1.85815052021875   -0.90461133209390   -1.44031599476932
H          -1.62467874252899   -0.95052711480852   -0.49612501712860
H          -1.00350007760443   -0.86545650119264   -1.89782976959092
O           0.84893080948961   -0.69733476151062   -2.00843297946878
H           1.37264574799388   -1.19044347557138   -2.64226334769841
H           0.94362692169048   -1.17104338679908   -1.14325907718820
O          -3.04420862361424    1.43182038839539   -1.56879546924977
H          -3.96808598144262    1.30086425082685   -1.35109791533232
H          -2.65385969385795    0.52054272485809   -1.65942845885102
O           3.08408381294481   -1.73669771217666    2.12461506244673
H           2.76344644213685   -2.12254501179664    1.29829097743360
H           2.96695181815540   -0.78317504526513    2.01109860606580
N          -1.16658573350085    1.96213283654081    0.23643763343855
H          -0.22474633707020    2.05199050257228   -0.26330992280878
H          -1.95151374753896    1.92168104975139   -0.46577109818789
H          -1.11079823045007    1.02038371339237    0.71080353715934
H          -1.29446058568430    2.70536075113236    0.91365675646826
