    26
        -50.46660146  Gyration_radius:  2.54654993329 Dipole_moment: 2.202
 S           0.31477294659350   -1.97422312800571    0.62781791549511
O           0.64956007463057   -1.65410138471850   -0.75233039089848
O           1.41745756049182   -1.73574095034865    1.53468012992420
O          -0.93339657847809   -1.35429567027385    1.03666459474171
O           0.04420908367279   -3.53785830321811    0.67121016873353
H           0.93134324351461   -3.87666876252845    0.62261469324015
O           2.18294405812228    2.07897756605101   -0.82352044042856
H           2.20449004099921    1.51696719584574   -0.02597455507989
H           2.67250177648236    2.87435936438932   -0.60828314761049
O          -0.62159580059317    1.29341248536157    1.44956226479659
H           0.32147871539085    1.31559808844721    1.66953322024880
H          -0.83311881734325    0.34432083756587    1.38424718074663
O           2.11329426800164    0.75897617260790    1.57766481210850
H           1.87136310015722   -0.20153302168588    1.52528486053379
H           2.78895922735650    0.81637188267456    2.25559570476157
O          -3.09324717732509   -0.97436929475900   -0.42115539006899
H          -3.58650461132910   -0.31519024851478    0.07176588485811
H          -2.37290315317550   -1.26755071240818    0.18114419447325
O          -0.50780463988389    2.22893518638338   -1.03932678945630
H           0.46788768463920    2.27322955205149   -1.10449651299170
H          -0.67666396729624    2.02262779216350   -0.08893591959082
N          -1.07895816980288   -0.12680591457920   -1.97834524626267
H          -1.08929904009892   -0.22877068877474   -2.98651232884187
H          -1.98858521598578   -0.41637873111308   -1.55060933590499
H          -0.33612097063729   -0.74964696989715   -1.54694346986426
H          -0.86206362809378    0.88935766727918   -1.68135210765587
