    26
        -50.46854462  Gyration_radius:  2.52553964644 Dipole_moment: 1.458
 S           0.95518304762192   -0.57590975520202   -1.51106687457252
O           2.32794083623061   -0.11817489983365   -1.50259069570276
O           0.64038050744405   -1.37402357230347   -0.33130524144835
O          -0.01972472100311    0.47974940308463   -1.71113365142895
O           0.80811221412144   -1.53696581897430   -2.76055506363896
H           1.56939959033374   -2.10034551276069   -2.67244250459471
O           2.57774601713429    1.34024035646661    0.64147786327812
H           2.52544822553071    0.78497074456631   -0.17600507356722
H           3.42635811292660    1.78501178603498    0.60447265749465
O           1.63816689277611   -0.71246670047462    2.30212620847612
H           2.09413685575151    0.06672545507582    1.94906508891232
H           1.53591219070085   -1.29576233126545    1.53982562874276
O           0.02648284423852    2.29034593766167    0.28133162650823
H          -0.04699164563227    1.86520169515394   -0.59232807414422
H           0.96713736839040    2.20883125893946    0.51510091497450
O          -3.35848629419376   -0.64029189972138    0.94849231519130
H          -3.65226958856143   -1.54540472745542    1.06185771700789
H          -3.14208106132174   -0.54406427845390   -0.00676369535680
O          -2.49340670648788   -0.44641737646932   -1.57962152419852
H          -1.55824176722337   -0.15315224499995   -1.64016532638549
H          -2.97135945633189    0.08441672961346   -2.21918627229003
N          -0.79573948917399    0.03125080793013    1.39870937151441
H          -0.62609511636179    1.02794001112584    1.09062597342509
H          -0.36759933397013   -0.57599885070363    0.65393441404857
H          -0.24763920057471   -0.16392639961266    2.24621461075494
H          -1.81277031234646   -0.18177979745173    1.46992962702451
