    26
        -50.47398752  Gyration_radius:  2.43811678051 Dipole_moment: 2.200
 S           0.57071122850087   -1.70286750828526   -0.68907441800825
O           0.06176398233752   -0.71200512556701   -1.63586316488166
O           2.00538681391569   -1.63622046667541   -0.53539999474005
O          -0.17018252240841   -1.65499815223051    0.55627877438875
O           0.26999779032380   -3.11941620192187   -1.32684632887020
H           1.06916618212305   -3.25231787194565   -1.82352945338014
O           2.78982806053070    0.51085190200810    0.74668206950116
H           3.73002222014053    0.45956241251362    0.92462221045041
H           2.54613643263406   -0.33185209231320    0.29614284273690
O           0.28816757536220    0.61196912273726    1.96168517738872
H           1.23389044843023    0.75010062887677    1.80714536596946
H           0.10098926207574   -0.24757115849974    1.54359630686892
O           1.27084247652795    1.72114248814887   -1.24522097336563
H           0.91751899544567    0.86722419744587   -1.54577020772910
H           1.94754840068933    1.49904619130645   -0.58685520206706
O          -2.67084522691543   -1.09472048635166    1.24056921450329
H          -2.55588468953101   -0.67789112076867    2.09822203456628
H          -1.80974669983334   -1.51571172050284    1.03957748207251
O          -0.75911237109066    2.44100691195339    0.31676086710262
H          -0.43833464922684    1.91761382979466    1.08647803376131
H           0.00320752430154    2.42633050375552   -0.30863675580224
N          -2.11081062266686    0.54927995581183   -0.80147874392368
H          -1.65252531354175    1.43169005837278   -0.34990373516655
H          -1.31598063995929    0.00617167024859   -1.22580011444654
H          -2.52268916293896   -0.04107178943822   -0.03969718475788
H          -2.79906550523245    0.79465381152135   -1.50368413216035
