    26
        -50.47281621  Gyration_radius:  2.46584414537 Dipole_moment: 2.097
 S           0.18613690268097   -1.33849590675013    1.76102800284344
O          -0.93348455229064   -2.09099659696141    1.24269558641162
O           1.46430360273946   -1.76396442972127    1.23782736301732
O          -0.01130441063539    0.10720100695450    1.63083525003914
O           0.22459384790943   -1.59714732962220    3.32603520272045
H           0.35292980893203   -2.53825977026822    3.31562902785535
O          -2.11274355980939    1.13751429501256    0.47186383164370
H          -1.35519527926788    0.72194863276889    0.95379043306004
H          -2.71522330775202    1.45597578753924    1.14493105855327
O           2.24950561381242   -0.63226035232060   -0.99454634660085
H           2.02940532029434   -1.18682079638477   -0.21139940939758
H           2.38040896126311    0.25381585884190   -0.62121882151926
O          -2.00200217629474   -1.21202826918138   -0.98586745939387
H          -1.63834471580571   -1.68698919046461   -0.20391114048332
H          -2.36388775300676   -0.39315721563998   -0.61152829270816
O          -0.31378153034725    2.28195231170655   -1.28150653070475
H          -1.06420218715969    2.06637952339712   -0.70049749518667
H           0.46927426067943    2.27548717053177   -0.70361172036496
O           1.73294212098794    1.66189275876282    0.46403309089271
H           1.11596619794839    1.05918404446840    0.94874054703711
H           2.23075799808911    2.13046102348219    1.13488577954397
N           0.01586459633623   -0.15064065843657   -2.29146598280491
H           0.03494671920014   -0.30556179659181   -3.29264838995639
H          -0.12324605333881    0.87278960543018   -2.05914042409970
H          -0.79006891646199   -0.68187756523440   -1.83570990922447
H           0.93644851129729   -0.44640213131933   -1.83924323117304
