    26
        -50.47288970  Gyration_radius:  2.42611987359 Dipole_moment: 2.381
 S          -0.60020832211743   -0.26990648374361   -1.61192884116960
O          -1.63751023941015   -1.27123491441670   -1.57246214291248
O          -0.87176368735975    0.86273740089047   -0.74261531284857
O           0.73334525463930   -0.81263529240624   -1.38225892474731
O          -0.59259823477020    0.29198021213685   -3.09898141331165
H          -1.28952422919485   -0.22108064693465   -3.49323704952991
O           1.21327081652832    2.20829697661187    0.33689319484982
H           0.38923512248666    1.87909444713268   -0.06270631215518
H           1.86794521325166    2.09536309442625   -0.36936023868571
O           0.89024809120072    0.61042934206410    2.42664291723887
H           1.16390315407692    1.27786689528482    1.75118642283506
H          -0.07685169720742    0.69015533188988    2.46846545278864
O           2.10233098747321    1.36536816224942   -2.13796151892682
H           1.57177776574091    1.71152450144409   -2.85769453506703
H           1.70786184417886    0.50543791364490   -1.91258230272041
O          -1.64928922345217   -2.10457518817608    0.97584413817675
H          -1.95751748703040   -1.29399925686000    1.41181607914288
H          -1.75755740487778   -1.93929966148419    0.01698076762130
O          -1.80115959746255    0.56037598173688    1.70137101324722
H          -2.47203071434343    1.22390545017901    1.86865737149230
H          -1.49585886335772    0.70647084014838    0.77631763724833
N           0.93849585691552   -1.63764180888482    1.11393648201980
H           1.03826502177156   -1.35381454557300    0.11070188809644
H          -0.05924490511197   -1.99309383339562    1.19196455717716
H           1.61956270390987   -2.34304083391358    1.37064737920532
H           1.02487277352298   -0.74868405405152    1.72036327093360
