    26
        -50.47172754  Gyration_radius:  2.52513592846 Dipole_moment: 0.995
 S           0.10116275732035   -1.93039555474181   -0.51829040536233
O          -1.14791356370701   -1.46035234575139   -1.09959190422230
O           1.19903409323370   -1.90719397553422   -1.46262283694983
O           0.39606139589531   -1.24258598816327    0.72865988021903
O          -0.10801776897617   -3.45445240421727   -0.14434974312233
H           0.18049073382107   -3.88438527628797   -0.94225310920094
O           2.24986347872173    0.74826304685020    1.05295396733303
H           1.73787717533544   -0.07576680213791    1.10330248969236
H           2.33697691094976    0.91425489326977    0.10179376216750
O           0.65466584974032    2.46620251612697    2.31313023525399
H           1.35172820052569    1.93352768087570    1.85587903558211
H           0.85740712743247    2.41910230878618    3.24799982869750
O           1.99763932480097    0.56067326864065   -1.71033256291447
H           1.75671710929210   -0.39554209913995   -1.62958431337346
H           2.64499076089925    0.61472413967058   -2.41535942706117
O          -3.16493537934749   -0.65317410453327    0.48910377712198
H          -3.99614364758762   -0.81198796860219    0.04052617513389
H          -2.47086932523832   -1.03771813365046   -0.08441721256464
O          -0.68636491910373    1.12378475009472   -1.72203268740807
H          -0.93901296210939    0.18217394163998   -1.73751710367205
H           0.27943477778767    1.13343854444343   -1.83603433128459
N          -1.06245205035642    0.97718942539722    0.89721895243900
H          -0.97168117509853    1.27824239528313   -0.11086004516314
H          -0.63049415156042    1.67435249887420    1.53928105283958
H          -2.04429088026351    0.74712867432615    1.08502945186896
H          -0.52187388240916    0.08049658848407    0.95836706394892
