    26
        -50.47298404  Gyration_radius:  2.48791883684 Dipole_moment: 1.932
 S          -0.34584530237365   -0.74428050039381   -1.98367654627267
O           0.10684803708168    0.43327263159324   -2.69615888118956
O           0.65042332187492   -1.21330969537972   -1.02274639829160
O          -1.65652165737906   -0.60998435211038   -1.38453661392557
O          -0.48033326519019   -1.88883674086561   -3.07255909307639
H           0.28517629656313   -1.73788243834538   -3.61675900965935
O           2.23039769168032    0.62130666974637    0.12086504014752
H           1.75976435179234   -0.10653688990825   -0.33167845154481
H           1.80112566164660    1.42904576373455   -0.19868539237167
O           1.72539317229207    0.11849993437004    2.63033662208127
H           1.98648599091281    0.38877416504886    1.70542236442911
H           2.25763303645788   -0.65300799958980    2.83014139458991
O           0.50149664973583    2.42459996930912   -1.08125415753486
H           0.36710876515091    1.70091461683171   -1.74643905193493
H           0.56872205262728    3.23855794891835   -1.58296330651094
O          -1.07309113664621   -2.31462182168283    0.59055644838250
H          -1.76485347843195   -2.00295282979538   -0.01165715009600
H          -0.26278312620444   -2.11025601466341    0.07547959472870
O          -1.62308695310051    1.43805554489314    0.30941444796369
H          -0.89036516618766    1.96599005896319   -0.05623556400072
H          -1.79331275080034    0.74756405557794   -0.36515661440257
N          -0.87618418319368   -0.22520921041566    2.20395378355919
H          -1.17851785167818    0.54036692057860    1.52392425026232
H          -1.45686751403936   -0.21433318225565    3.03481588427709
H          -0.97941751954264   -1.14092252502744    1.67322167911302
H           0.14060489695692   -0.08481406912577    2.45237472127623
