    26
        -50.46525101  Gyration_radius:  2.62489276594 Dipole_moment: 1.921
 S          -0.12954312107637   -0.52501013878278    2.04383190483124
O          -0.41266632614773    0.29832188332188    3.18361759094887
O          -1.00017953773845   -0.28963990987832    0.89625709087805
O           1.27541410968577   -0.51741064521941    1.64274325378695
O          -0.46109791175969   -2.02927360362654    2.45977074487664
H          -0.07140621811502   -2.11303923533100    3.32440368192365
O          -1.85695379523306   -2.29310233630988   -0.63251239995970
H          -1.51816051588062   -1.63303812584530    0.00794762462671
H          -2.70096258145501   -2.58404609761833   -0.28459016159344
O          -1.38723670741858   -1.10137999472126   -2.99308230512235
H          -0.92414698102520   -1.74699348956944   -3.52934090186369
H          -1.66602997784266   -1.57905206279208   -2.17980110818544
O           2.43978093300972   -0.61630650753188   -0.72348495743211
H           2.05327872327253   -0.72447446122669    0.17462752233355
H           3.25308180447777   -0.12405203760818   -0.59899842171675
O           0.26027299693740    3.13328529357074   -0.81743338312217
H           0.55365056817249    2.86891086733400    0.08179899384538
H          -0.49109774254045    3.71430819527001   -0.69127348481359
O           0.86281271876999    2.12043594421902    1.60515897783283
H           0.22322125448412    2.03125947948460    2.32199865881103
H           1.26162718514047    1.23549425230885    1.56647045153158
N           0.08827879702723    0.50751031349263   -1.39926150849622
H           1.05591390091239    0.12140693464944   -1.35319961074954
H          -0.37270383130114    0.23672356733407   -0.49623443064934
H           0.11419480666275    1.54571049608710   -1.43691464290716
H          -0.44934254099657    0.06345143898405   -2.17249916962140
