    26
        -50.47217987  Gyration_radius:  2.38256062456 Dipole_moment: 4.490
 S           1.08434958595835   -0.94181579174254    0.17110187801330
O          -0.36315823956965   -0.82458395244689    0.39931669128950
O           1.61635808757047    0.39100291134983   -0.19253384376384
O           1.76192218927582   -1.49225118789343    1.31514913603642
O           1.30467205362232   -1.87735082363333   -1.02945256891956
H           0.75932884828430   -1.52799580303956   -1.81153301286947
O          -0.22796464645690   -0.94675662874108   -2.85112438063572
H          -1.05664402290955   -1.32721374169667   -2.49064883822914
H          -0.26693507492688    0.00967031442957   -2.66716906603267
O           0.30534534411506   -0.46999084499618    3.21251462079961
H           0.93817437003921   -0.95936697022282    2.63068149637626
H          -0.55813460437402   -0.82244256545377    2.98098370931034
O           0.10664440682075    1.60960421105457   -1.92103753480541
H           0.65457140440615    2.13235822023090   -2.50845745370476
H           0.72539285988976    1.16403383453808   -1.28597052675628
O          -2.07599031190632   -2.02430096301756   -1.23894786483783
H          -1.98971548432571   -2.97284170478080   -1.13235311094058
H          -1.51604392143569   -1.61703167061396   -0.54490150086949
O          -1.54670412809621    1.57780847867160    0.31819026011723
H          -1.28002827422700    1.84557667901429   -0.57298528037763
H          -1.35056043912681    0.61893802367046    0.34374561324786
N           0.60727338892845    1.73024790844380    1.79820947202314
H          -0.33115228212927    1.89928520354118    1.32499702245899
H           1.20349331562330    1.29512579448849    1.03778054790370
H           1.02020882577291    2.56814740246595    2.19244352627892
H           0.47529676917215    0.96214368638605    2.52200101888762
