    26
        -50.47190987  Gyration_radius:  2.46873212145 Dipole_moment: 1.433
 S          -0.14104603180893   -0.83481545977677   -1.80212035579450
O          -1.44124019803394   -1.16882024348208   -2.32869420185009
O           0.00421033942282    0.57976230257433   -1.47853236073501
O           0.30183027687968   -1.67604490163633   -0.70647414770370
O           0.88339992914748   -1.12131006673744   -2.99390778284023
H           0.31715459669222   -1.16407352911968   -3.75762854948665
O           2.57020739640671    0.13855440687244   -0.94155722955493
H           2.64350181825176   -0.79659608769732   -1.14151017010794
H           1.67412910446454    0.38463486048768   -1.23625806862967
O           2.14223152255972    1.05242617916652    1.55238515102374
H           1.46677763304327    1.71582623228804    1.33619950076033
H           2.51541858959197    0.78219582275965    0.68693014168022
O          -0.16840444882250    2.25289350447807    0.55466094283946
H          -0.13996231771256    1.63190843294331   -0.20799332021501
H          -0.37074794707907    3.11237315236926    0.18263109320267
O          -2.91920159667400   -0.53192808882747   -0.23437142977690
H          -3.61692019160687   -1.18964581862929   -0.23557292740552
H          -2.38129919266359   -0.71126506505844   -1.03286717841404
O          -1.77113728682972    0.52150516572221    1.96701794813988
H          -1.34459880718646    1.31759547393301    1.60473832416645
H          -2.29680904557042    0.15957866866711    1.22657369412008
N           0.41997793454170   -0.91444027467028    1.81948297013117
H          -0.50431404343341   -0.41361421058822    2.00671428774946
H           0.37666401519083   -1.28561943097911    0.83583912044694
H           1.19214206737917   -0.17807850149656    1.84316163468707
H           0.58803587383934   -1.66300253357159    2.48115292359710
