    26
        -50.46471553  Gyration_radius:  2.51567304515 Dipole_moment: 2.410
 S           0.46353828470054   -1.39061345676657   -1.69122340945527
O          -0.05298667253552   -0.09607300133517   -2.13443858986369
O           1.91203794404838   -1.38438922712048   -1.59684167958516
O          -0.19669302717207   -1.85533905010846   -0.49599342248680
O           0.10457467943730   -2.42385879209010   -2.84184045786424
H           0.71521971669037   -2.17475417591049   -3.52837634702086
O           0.98054267322211    1.97737331177076   -0.74790951825113
H           1.72643102732823    1.53953312156196   -0.32576878375033
H           0.60895156819510    1.30712956744277   -1.35459850659476
O           1.96601192557660   -0.25605380047483    0.71539993905100
H           1.99476627104270   -0.68899399055276   -0.17730507978597
H           2.30957053957394   -0.91226639041217    1.32522838549227
O          -0.33664125502849    2.98442290220275    1.39158074749749
H          -0.01805697871962    3.86608408149875    1.58409968232724
H           0.10765944743446    2.70860946248590    0.56030330896666
O          -1.06483889510872   -2.27242969560220    2.00534737953911
H          -0.69221865311943   -2.27252281100642    1.10147446945886
H          -1.90499872861176   -2.72805873094675    1.93404396753540
O          -2.09450488687974    0.65840273376834   -0.71036370525169
H          -1.42960762444684    0.27605411732157   -1.33132303780515
H          -2.11783710787740    1.59977225226160   -0.90026133756969
N          -0.60041596235543    0.31445079689916    1.47328117756747
H          -0.61020933917728    1.21295677662132    1.96697698063249
H          -0.90489121962917   -0.51201445503098    2.01686103233208
H          -1.23424578114774    0.40511849438098    0.62940592316059
H           0.36884205455581    0.11745996913063    1.13224090173120
