    26
        -50.46738291  Gyration_radius:  2.5320130024 Dipole_moment: 1.711
 S          -0.08040462701988   -1.30449871131960   -1.56595073074079
O          -0.16596939303786   -2.70613350695567   -1.24230898822994
O          -1.33325489069875   -0.59277650490756   -1.54761353464132
O           0.92755016065119   -0.60289410621114   -0.75056809416617
O           0.47937276870816   -1.22218771779342   -3.05596772842861
H           0.86573429068157   -2.08269576830455   -3.18588986026663
O           2.40529219877024    1.26948972524581    0.70689914731741
H           2.17805653198378    0.46571207458856    0.21923074027260
H           2.02795250798300    1.98635219548400    0.18577336971827
O           1.22679114741601    0.91000865162164    3.10785325912756
H           1.74495848968575    1.14831868947621    2.30731343221729
H           1.83887647107822    0.48697625251170    3.71081328277202
O           0.53968752583553    1.93482165502834   -1.50139341238578
H           0.40096870538123    2.01179814320327   -2.44630789441726
H           0.66618041428732    0.98098141049523   -1.32733489503849
O          -1.88263459726159   -2.33976819007815    0.76610894191239
H          -2.66669207841832   -2.09319282937045    0.26954230141363
H          -1.23839829572148   -2.63061942744802    0.08863759784363
O          -1.87088224004151    1.66397666074112   -0.17327641683363
H          -1.10629987925417    2.14014326582890   -0.53708248026276
H          -1.97482997857562    0.90686876830245   -0.77778399834431
N          -0.60331890437087   -0.06495455828321    1.38653817526601
H          -1.19574486327669    0.71737414103296    0.99560670670921
H          -1.17866324124870   -0.92770471664366    1.47575784259944
H           0.09663035775217   -0.27868329008805    0.64330705873471
H          -0.10095857128522    0.22328768383553    2.24809617785310
