    26
        -50.47133212  Gyration_radius:  2.51768701325 Dipole_moment: 3.525
 S          -0.24305186463032    0.83671441421945   -0.27514320461575
O          -1.46995997214778    0.86479820323922    0.51011136172750
O           0.85863840588009    0.25371086228118    0.50104512255206
O          -0.42213072901034    0.13793924431261   -1.53741248471462
O           0.14978239510443    2.29335731383172   -0.61971259992953
H           0.58439278207759    2.62279278971643    0.22156966581339
O          -1.82064188886220   -1.65979012042272    1.24134439603613
H          -2.69945048565888   -1.71572906989087    1.62122368611143
H          -1.67903137160981   -0.71275864539836    1.02821743285605
O          -0.93133188981617   -2.48499422843513   -1.14005689529627
H          -1.35255403418823   -2.40815726411940   -0.25895548689546
H          -0.96778135251947   -1.57659545997280   -1.49440724768558
O           1.15852823100144    2.65529196955219    1.70686057489957
H           1.36353928755947    1.71091740967099    1.64215270579534
H           0.33964538667767    2.70879580511391    2.24458945302623
O          -1.35457401543570    2.45613321326866    2.62452464408303
H          -1.48218355595466    1.81600530089518    1.89121975113213
H          -1.96717314404292    3.17484004425976    2.45928116889834
O           1.76215339367143   -0.51005078823907   -2.87154722363629
H           1.51304728097946   -0.69983274572843   -3.77765082198116
H           0.96556241104578   -0.11473957376155   -2.44925868944636
N           1.57236921287206   -1.96420948071869   -0.64300514497329
H           1.37028639316146   -1.09237619935349   -0.06361697801949
H           1.91827892779639   -1.60508895456014   -1.55787161395597
H           2.22595715989534   -2.58888429326370   -0.18545792785724
H           0.60768305616018   -2.39808975647615   -0.81804361392807
