    26
        -50.47508727  Gyration_radius:  2.41595926095 Dipole_moment: 4.308
 S           0.99216090009398    0.01018794417357   -1.45713519087577
O           0.50691817981167   -1.32887112904055   -1.08017712638798
O           0.06152928367419    1.02643654533819   -0.96425052073157
O           2.33414183281131    0.24407748964067   -0.98266390467396
O           0.98665665458014    0.08507806504256   -3.00690189737687
H           0.07632899261296   -0.21175754634563   -3.22623414294425
O           0.17453201359541    1.97949417576328    1.54392705785912
H           0.16189108878004    1.81610349897085    0.58164269001952
H           1.03270758750287    1.64857234581953    1.83543019652348
O           2.45537179621514    0.27678290277603    1.61131996593914
H           2.45465250958429    0.31343234934230    0.61778369528934
H           3.37858875974848    0.27391519060298    1.86966194474348
O          -1.42820851807062   -0.97651666560129   -2.87107726726056
H          -2.07064662250110   -0.49805657687039   -2.32578208701543
H          -0.89922691465276   -1.48555861499784   -2.23625603040164
O          -1.69770103030027    0.13215587403927    1.92982750675888
H          -2.15847520571780    0.16788829134172    1.06949742917604
H          -1.14068455864938    0.94675487698405    1.95241979979171
O          -2.45822379340746    0.51248681801778   -0.68708309455333
H          -1.49792383089757    0.72967933187973   -0.80871736542185
H          -2.93026247629977    1.33973461673693   -0.79915212796475
N           0.33658182521565   -1.42546547935614    1.50859430714190
H           0.38329636715094   -1.49033840713977    0.44561965180411
H           1.17106960336659   -0.87863637497057    1.79272816747064
H          -0.55711754754683   -0.86112021870241    1.75439347487156
H           0.33204311330304   -2.34645928344670    1.93258485821606
