    26
        -50.46971145  Gyration_radius:  2.51042028097 Dipole_moment: 3.032
 S          -0.88664928859219   -1.04660310087763   -1.67702304481312
O          -0.80010002199732    0.11534155609675   -2.53568569514240
O           0.42070545769130   -1.38523246081286   -1.10475835759576
O          -1.91034450343260   -0.96185286165915   -0.65847482093055
O          -1.28311491388223   -2.25142661914925   -2.62540364074188
H          -1.07678982638377   -1.89373180736875   -3.48231624517247
O          -0.12807557195578    0.13510842337235    2.59822072039682
H          -0.21785890593633   -0.78337200976963    2.26301615019318
H          -0.71589902458313    0.66864216850163    2.04010226979842
O           2.36798134280264    0.59322506234015    2.04504846127085
H           1.41912853982811    0.50755594246221    2.35193494554937
H           2.81189821393054   -0.19031191944567    2.37364752222573
O          -1.80946455010024    1.26775846071312    0.69265975636588
H          -2.70561858173029    1.53679728713999    0.90114506098934
H          -1.88619752623776    0.42231295621356    0.18498604903170
O          -0.41089242338536   -2.21964654278669    1.30304674191109
H          -1.34792000529927   -2.21287358486985    1.08464816633632
H           0.02503094002827   -2.03013427858702    0.45238279615865
O          -0.10530268481247    2.29011318128130   -1.17754524361238
H          -0.42208233243410    1.63497382070504   -1.83466641346831
H          -0.71956728155165    2.19578579799919   -0.42843016968962
N           1.90155855179104    0.72547382366819   -0.55559721414062
H           1.19421281630206    1.50201301921156   -0.75559198244703
H           1.40217189193430   -0.16925617541784   -0.80167732235825
H           2.72959442284157    0.84130862363032   -1.12918149789600
H           2.15359525518274    0.70803123730738    0.47551301784397
