    26
        -50.45757823  Gyration_radius:  2.55672135799 Dipole_moment: 3.358
 S          -0.25029368311566   -0.46001147396469    0.27454358409481
O          -0.58633993763926    0.16100245647176   -1.08391565120587
O          -1.17191518825173    0.09068599293208    1.23492326197425
O          -0.26913313740748   -1.89890232503526    0.16847216577474
O           1.16545995742375   -0.02896989472141    0.59664326030939
O           2.19894077465336   -2.12285334566214   -0.91722391545722
H           2.64913107332813   -1.41490351126447   -0.44865687667726
H           1.38307331316723   -2.28246629663839   -0.41252726479851
O          -1.25267374104083   -2.98940712428855   -2.11205598363747
H          -2.20843707815840   -2.92541504361771   -2.10453208633747
H          -0.95100225878940   -2.76126014226846   -1.21398565947115
O          -0.22638714646266    1.28655500562592    3.44730601316656
H           0.07771297929328    0.60687737519308    4.05073414501785
H          -0.71891896543788    0.82785285118701    2.73862611561909
O           0.60212548199781   -1.17359805409284   -2.82139981021828
H           1.35698544180067   -1.54752021391283   -2.30849144808148
H          -0.04134003777170   -1.90750438903341   -2.88838621682075
H          -0.07317178546282   -0.34621623438172   -1.85372680710360
O           1.15890743688212    2.27513537827395    1.41246971175798
H           0.37231272901760    2.64079315218168    0.89243686662258
H           0.80161575955864    2.10987949735909    2.31562770280204
H           1.21930860576633    1.04580285998306    0.94925386340202
N          -1.06843742137565    2.75818455647118    0.13478501420319
H          -1.44031043210100    1.86610512314717    0.45358539928783
H          -0.99521262171174    2.70434858240307   -0.87325460747534
H          -1.73200010816729    3.48580521765606    0.36874924325068
