    26
        -50.46688681  Gyration_radius:  2.52750655723 Dipole_moment: 4.525
 S          -1.12090088325237    0.29225933334322   -1.43975124985442
O          -0.35308730801313   -0.55529132458157   -2.34183798302158
O          -2.07092911949909   -0.47963539257255   -0.65133121322269
O          -0.27627845798755    1.13974170418100   -0.62715343625100
O          -1.97441424299049    1.25493365015196   -2.35789679424792
H          -2.41625725736054    0.63922337551798   -2.93314522803721
O          -0.43704412403539   -1.64749026618417    1.12883501041559
H          -1.15861610473451   -1.40465823437444    0.51722981965377
H          -0.31879792493531   -0.83983183950067    1.68162651690106
O           2.00409654267113    1.90695511492246    0.64058362258842
H           1.25201259280708    1.81515966128872    0.03183426095265
H           1.62618254857609    1.77981234491764    1.51731808869687
O          -3.12217972980703    0.61331334680746    1.58367900781992
H          -2.81487178867822    0.27664141250946    0.71987123405943
H          -3.75658783640578   -0.02773468831999    1.90774059262802
O          -0.42563905002515    0.85420754477513    2.04653912039985
H          -0.40257402803586    1.07754248501482    1.09647246073538
H          -1.36719411739547    0.92753694436127    2.26886253167889
O           3.44899319618722   -0.10007616769346   -0.24859173080982
H           3.93870262791378    0.26470821903456   -0.98730978500747
H           2.98690468438111    0.67101158694853    0.17331405022043
N           1.37287219180039   -1.70525809109074   -0.75163191318229
H           1.65378926192717   -2.63741965731093   -1.03750397106066
H           0.74650461146246   -1.75322255575425    0.11760085605294
H           2.21937833111064   -1.10670277676382   -0.56168088335991
H           0.76593539428414   -1.25572570962948   -1.49367300475928
