    26
        -50.46810611  Gyration_radius:  2.48175285074 Dipole_moment: 3.385
 S          -0.71228784824486    1.64837706621753   -0.63400102363773
O          -0.93069840347679    1.73986687233642    0.80464313699151
O           0.54971629175598    2.22198473293021   -1.05172224363650
O          -0.91030408604926    0.28976561120581   -1.10352411139133
O          -1.83804380715884    2.52319485676223   -1.32935594580947
H          -1.43881995451821    3.38592451009360   -1.38146137373565
O           1.63388208601362   -0.40051908999195   -1.51165913601759
H           0.70841414453736   -0.10085054168394   -1.41522952477532
H           2.11502700827469    0.38492770070328   -1.78281696680846
O           2.03000721188500   -0.64122361466547    1.14616960746668
H           2.03352805946303   -0.73552822200941    0.17124029125667
H           2.17171692853560    0.31887720536172    1.29917650814649
O          -1.83395718449016   -2.63040705411315    0.47013734016597
H          -2.74959769129807   -2.43054085909633    0.26770585918898
H          -1.37599317824641   -2.66932621659316   -0.40523230447175
O          -0.70700738184019   -2.29821543339118   -1.90414098629797
H           0.25356931823103   -2.30771698840049   -1.95339194454746
H          -0.94399705155600   -1.35968953187576   -1.83257015209295
O           1.83248579721909    2.03092990384908    1.26737553273283
H           1.51476904653877    2.18254098051707    0.35527542953436
H           1.07317469882204    2.24824415859286    1.81490531090515
N          -0.50889579367684   -0.68664756905993    1.75635444935136
H           0.54477987196103   -0.78421316413943    1.55075471563494
H          -1.04223960290889   -1.44236857399909    1.25140781900017
H          -0.67793344108875   -0.74949743042842    2.75503531699950
H          -0.79129505869268    0.26211069084057    1.39492439585676
