    26
        -50.46794236  Gyration_radius:  2.46430813893 Dipole_moment: 2.587
 S           1.06877421789277    0.15018227312976   -1.49501882040858
O           0.85120375311961    1.56554304315711   -1.68773737334381
O           1.91858366310751   -0.12738667241494   -0.34464436732430
O          -0.15686924219244   -0.63244021797632   -1.44392045594813
O           1.84202552747003   -0.36415094319938   -2.77736837701606
H           2.44413409833696    0.35044186968802   -2.95761475230358
O           1.17523365639341    1.97701994189680    1.12054918832575
H           1.52129679256052    1.21922541379708    0.61163444787362
H           1.09990243881213    2.68241411915007    0.47272991187097
O           1.71904891562618   -1.21188052504852    2.10506043951641
H           1.98611167498947   -0.95882412134682    1.20081274415907
H           1.93062376675078   -0.45327340921213    2.65480410526461
O          -1.72896755494217    1.69677975237895   -0.99236210268470
H          -0.80415143678818    1.78949746772918   -1.29197249510735
H          -2.02981057758508    0.87134745398439   -1.37940204396058
O          -1.91430767475698   -2.72122712487584   -0.81501353022450
H          -2.12066886084845   -3.40025694289882   -1.45806680122576
H          -1.32948256931907   -2.09104475493566   -1.25981426934517
O          -1.41897655596450    1.41624754889717    1.66404095599926
H          -1.73198684997365    1.66152593337006    0.76725799893966
H          -0.49590745525263    1.74102199744133    1.68905500944098
N          -0.77945807915150   -1.05166830279719    1.14480021679410
H          -0.49694608113953   -0.91267214408044    0.14847606799224
H          -1.17026103457013   -0.10890882904479    1.48153591414941
H          -1.46597282144781   -1.80353686159244    1.15983806482791
H           0.08682828879472   -1.28397595515037    1.68234032374741
