    26
        -50.46879247  Gyration_radius:  2.47367941249 Dipole_moment: 5.556
 S          -1.11898217029137   -0.54668627591043   -0.88935032666614
O          -1.95044231989027    0.34734127179809   -0.10604473954729
O           0.27728047456937   -0.08005459091628   -0.92460484853826
O          -1.16312979236407   -1.92396595205890   -0.42581793094988
O          -1.62327982838489   -0.53569842152815   -2.36116238419902
H          -1.73156645131666    0.43061889142697   -2.53326955386063
O           2.35888522955890   -1.66135540969667   -0.72416968658341
H           1.65427897461286   -0.98580047270162   -0.86861119078062
H           2.34112747322010   -2.22594848252152   -1.49887481353098
O           0.61062414074076   -0.19662588297067    2.95990090090022
H          -0.01175423963096   -0.23413673526715    3.68834783211927
H           0.31932643049354    0.58447676145249    2.41336623803086
O          -1.81982401776526    2.06399611434420   -2.15131987930987
H          -2.19187050802770    1.78383349708922   -1.30037287088219
H          -0.96627438717878    2.46927457400145   -1.92474910005682
O          -0.42189460763041    1.74433184189827    1.55142593535206
H           0.08471605867052    2.25010381786017    0.90210429512112
H          -1.07776472474077    1.24696143036772    1.01998982987915
O           0.66583155891799    2.49686850265432   -0.97251755971829
H           0.57693849155662    1.51340923525119   -0.96092072798262
H           1.54563945393144    2.68543886966758   -1.30162895648220
N           0.73479527202245   -2.26722203864187    1.30491404870248
H           0.75441704580926   -3.16372036025198    1.77890674517075
H          -0.11427924573975   -2.18598889605237    0.65829973769243
H           0.70793392616672   -1.46445509258697    1.99684687572259
H           1.55926772270271   -2.14499621669407    0.66931210039513
