    26
        -50.47027121  Gyration_radius:  2.4908191179 Dipole_moment: 3.330
 S          -0.27440052039033    2.01209443195387    0.28660601061053
O          -0.77643405097600    1.21538761688373    1.39643678150719
O           1.18292946354617    2.03195018512446    0.26244155230769
O          -0.85088388959374    1.65222634446237   -0.99095615632937
O          -0.73464037653751    3.50045243337236    0.57254095433236
H          -0.33778978666551    3.67503903412778    1.41949848624374
O          -2.91461279745044    0.34272194686844    0.08977770664448
H          -2.35647327967041    0.59475798064917    0.84728718017015
H          -2.54720308983775    0.89015448972193   -0.62064840520244
O          -1.75116804048046   -1.95327009261218   -0.45815569188947
H          -2.28171629849957   -1.13421628842689   -0.25708578566784
H          -2.38089349164944   -2.66678511420972   -0.56532095736785
O           2.54103566231286   -1.71699896364396    1.08931307784099
H           1.57512798425443   -1.68913133050081    1.32920689034439
H           3.00768563314399   -1.39325555611617    1.86121898932552
O          -0.06950523567919   -0.62044047594149   -2.16058393509881
H          -0.61282968716347   -1.25630056726157   -1.66042939413999
H          -0.42750085324089    0.25719353398162   -1.91831884910055
O           0.00478037451247   -1.35718167793896    1.60221702425701
H          -0.57908115001543   -1.73651396474096    0.92519064977498
H          -0.22814615173706   -0.41015959231158    1.64111545165766
N           2.18774863583185   -0.05285257303142   -0.95008306794915
H           2.43886755027517   -0.75062186882005   -0.19919511117253
H           1.85550667544091    0.83569191399486   -0.47342407213643
H           2.97669120475848    0.13865430000668   -1.55730847948360
H           1.35290552552588   -0.40859616559434   -1.51134085945867
