    26
        -50.46980621  Gyration_radius:  2.50319065268 Dipole_moment: 1.383
 S           1.75266233531632   -0.90333138903249   -0.61720445459955
O           1.14247954098288   -1.25448232379440    0.66551057857120
O           0.96907810318082   -1.45032085618337   -1.70735601032607
O           2.02301779804265    0.51297461082441   -0.72858394742758
O           3.16375406382535   -1.61989425513109   -0.66010998353157
H           2.94110175939736   -2.53832335606232   -0.77584023305378
O           0.46381044936640    2.11878227916228    0.61354495711299
H           1.09397665022716    1.51415833711757    0.14736235692823
H           0.92429259921888    2.95329340371588    0.71535655925169
O           0.02719331516146    0.27743230298626    2.64052825110318
H           0.08915651983008    1.07568152615171    2.09054813338382
H           0.55250937833032   -0.38034133619943    2.15643509999888
O           0.40676733333945    0.80857008908859   -2.97182293533321
H           1.16775655319883    1.27427645058987   -2.61061106050570
H           0.55756511336489   -0.11869208734410   -2.70128770832959
O          -2.42480397088113   -0.67298043183481    2.37548780636129
H          -1.52633008935725   -0.34604258482860    2.64208038075989
H          -3.02746877194838    0.05927555104474    2.51435186620056
O          -1.46695933342460    1.25979187314430   -1.14352632973358
H          -0.92878679448875    1.75154312466152   -0.49967574422205
H          -0.89685299709534    1.17394024686177   -1.94556245617522
N          -1.41460236864323   -1.11909205225533   -0.04735768029033
H          -1.72176207267847   -1.87003667056593   -0.65588103131469
H          -1.49712083244593   -0.17141806553438   -0.54941670361525
H          -1.96536835632958   -1.07110785318481    0.84860843168150
H          -0.40506594549040   -1.26365654339978    0.20442186710552
