    26
        -50.47168585  Gyration_radius:  2.49095703965 Dipole_moment: 2.981
 S          -1.33840604654024   -0.44629645082722    1.82007955858324
O          -1.50818892159929   -0.83778645026153    0.42253165603429
O          -0.18230153811731   -1.11968919443295    2.40154791194949
O          -1.33209710720733    0.98238065495880    2.00512001412294
O          -2.60134754766446   -1.00085347866707    2.59525949353607
H          -2.47632404407276   -1.93959247500823    2.50848113597196
O           2.04983532989897    1.06314238106818   -0.53324493688190
H           1.66512785329511    0.81803242503367   -1.39428838186251
H           1.41300772165080    1.68877460328868   -0.13790850934862
O           0.11968266694046   -2.15641248412312   -1.26725853661311
H          -0.62903729182319   -1.82259344148487   -0.73567963970805
H           0.27514365798676   -1.46555691340668   -1.93678866373496
O          -1.50111424298721    1.15983605309435   -1.35170948822469
H          -1.65745814288901    0.43940889218529   -0.70712577294531
H          -1.11073956701992    1.87799463797774   -0.83245251746896
O           0.03652081773292    2.57780805011107    0.49700240407791
H          -0.46518703111795    1.98519685983692    1.11316541632293
H           0.09200148652199    3.42792728041024    0.93547849034578
O           0.52917343933974    0.18360807321247   -2.65388531746733
H          -0.28986637579743    0.57286066555838   -2.22756497588472
H           0.47405828934933    0.39334036865834   -3.58629301543901
N           1.71622764222171   -1.28531736896847    0.62538883877314
H           2.54664225093866   -1.78208766197142    0.92681639431094
H           1.01394971898468   -1.20395413233536    1.41694798799033
H           1.95355766932482   -0.31694189841602    0.25685947613078
H           1.20713930266445   -1.79322899546643   -0.16047903256877
