    26
        -50.46300316  Gyration_radius:  2.49745443576 Dipole_moment: 2.160
 S           0.17301138247281    2.00954648437417    0.80359137029905
O           0.52945008685572    2.42307852879317   -0.53830301680374
O          -1.23930555429497    1.70599037281085    0.93992167461604
O           1.01886573852898    0.93882999919589    1.31070080053057
O           0.45322360653181    3.25314599904287    1.74570170432068
H          -0.11042243135427    3.89262355069229    1.32633959312727
O           1.92097340974690   -0.80569698554282   -0.48975831451820
H           1.78235971340505   -0.11007200628213    0.18520143124896
H           1.72332434518846   -0.37085812204156   -1.34004438501629
O           0.17390448516938   -1.07325168810660    2.77456157747866
H           0.40495439721375   -0.23397299593237    2.30919845776967
H           0.90976418701078   -1.24930237437581    3.36320149599884
O           0.96281532556671    0.75408718306157   -2.49069782594053
H           1.43579905050570    1.24516143570806   -3.16380574067883
H           0.74200893008135    1.40792453346811   -1.78131760949929
O          -2.27353140702466   -0.38134101426578   -0.16247673620235
H          -3.08856249737559   -0.50224022828194    0.32739682009188
H          -1.86988836758724    0.44926168645955    0.20683174998812
O          -0.83495639014380   -1.42551567679791   -2.37815821178072
H          -1.58303047590984   -0.96928996166669   -1.97966576963216
H          -0.20330898360274   -0.72818008686121   -2.59859530878784
N          -0.21425060713024   -2.07777535309551    0.32837518104791
H          -1.03638862743039   -1.50660979131389    0.01931298845488
H           0.66357672783689   -1.66188275814869   -0.13235565101819
H          -0.10344444749598   -1.93699475174891    1.35806290569501
H          -0.33694162676341   -3.04666596914680    0.05678079920784
