    26
        -50.46483935  Gyration_radius:  2.65973096219 Dipole_moment: 1.889
 S          -0.54442140345687    1.49030290086428   -1.68335280395580
O          -1.54946921416110    1.68119869195691   -0.65350900633262
O           0.79097413870195    1.83523211521903   -1.21949601734959
O          -0.60456652344378    0.16207570715958   -2.27419068937559
O          -0.87857679573568    2.50164359847728   -2.85710126755890
H          -0.62243319411551    3.33686693134542   -2.47924809420305
O           2.49679996501805   -0.15602266089266    2.64608042527615
H           2.79230557784075   -0.83604580551433    3.25227169796275
H           1.64258404878266    0.17618896609328    2.99614794922627
O           0.97663889228743   -1.99045741531620   -1.84758778298451
H           0.25545961025165   -2.59493639835927   -1.64731725530833
H           0.54485270025883   -1.21986023739339   -2.26138939936586
O          -1.28270021961466   -0.28482577492748    1.02209878179353
H          -1.47727726823007    0.52799467680183    0.49192636792995
H          -1.66076254432187   -1.00792816472044    0.48620889419681
O          -1.98019437598827   -1.77969698378261   -1.11334620296308
H          -2.88874560044881   -1.78859555688858   -1.41703398173645
H          -1.53888755580544   -1.04972770036515   -1.60502423273161
O          -0.01129968541577    0.64507067997425    3.27906828930700
H          -0.16976990447941    1.58802133399300    3.20691234727425
H          -0.59127300027296    0.22704943464850    2.62048762959995
N           1.28805492886353   -0.30345277691761    0.21988389294895
H           1.98089342802412   -0.29733069356885    0.99043021906697
H           1.28355321626542    0.60353507304715   -0.31347273672844
H           1.42268326472344   -1.07364925186581   -0.47008206994033
H           0.32557753448835   -0.39265069906697    0.63063504595163
