    26
        -50.47172764  Gyration_radius:  2.52490504535 Dipole_moment: 0.999
 S          -0.49050839120975   -1.11150582932633   -1.58911561062657
O          -1.52469140535375   -0.29506515694780   -2.19046653989356
O           0.84967853566367   -0.62568294665274   -1.88340794413181
O          -0.67563776840431   -1.32013526082763   -0.16176563741733
O          -0.62483502055480   -2.53629037431562   -2.26601660344655
H          -0.98277383463091   -2.30698848133358   -3.11692027079379
O           2.93064395986733   -1.39902067177645   -0.36175514826698
H           3.72301600736163   -1.41244148665609   -0.89949107948666
H           2.19311128421495   -1.19475946785066   -0.97235986138283
O          -0.19794310550424    0.53218158248938    3.39647896763003
H          -0.97520991171859    0.54867058625176    2.78473247875008
H          -0.43934533510937   -0.05472283230488    4.11387595019984
O           0.97322620314835    1.80244569319002   -0.71416643208263
H           0.03640785695035    2.06282601280421   -0.69397698878814
H           1.02007142950980    1.05401059319226   -1.33734915232379
O          -2.07503037808049    0.32710657674954    1.52083372967766
H          -1.75121052224793   -0.42217864120124    0.99404741639472
H          -2.09058878626892    1.06669235111246    0.89430853390667
O          -1.76789244637015    1.87525830605771   -0.76927165440266
H          -2.36186825331480    2.48108671807495   -1.21559614599865
H          -1.73982244122074    1.05687526397781   -1.32469943759149
N           1.21484718287175   -0.02399632917926    1.19073687397240
H           2.11773881750386   -0.50014509834476    1.09139676404512
H           1.22734178261023    0.85327835852097    0.60303929266873
H           0.49438207618357   -0.63809303836070    0.73923422210103
H           0.91689246409479    0.18059358272873    2.16767430725834
