    26
        -50.47037325  Gyration_radius:  2.43419707855 Dipole_moment: 2.979
 S           0.75370535297254   -1.25584784771733   -1.15125765492823
O           0.04301341191434   -2.13405555347714   -0.22480116648187
O          -0.18551205885297   -0.42907864555042   -1.90726824670643
O           1.79193272530023   -0.49768145182047   -0.50915702660210
O           1.45275641014315   -2.19939894323921   -2.20958989948326
H           0.71974230524662   -2.67167034988751   -2.59055659928265
O           1.82947487332299    2.18814101684353   -0.07797411375751
H           1.97620303329244    1.30492730286009   -0.45721579744125
H           0.91991331051829    2.41067477771487   -0.32348164511226
O           2.13031033433684    0.69110174358492    2.08909319637651
H           2.03137394815514    1.44978019253470    1.46528177133209
H           2.67676096774817    0.06994520045401    1.59666306773214
O          -0.75955558722272    2.00426992488496   -1.07181342440611
H          -1.14925948425806    2.48456848208133   -1.80402388163280
H          -0.50740735048169    1.11940777723531   -1.42628252001214
O          -2.50322817707075   -1.17788727968210   -0.80505942856235
H          -1.75241563203252   -0.87106030562295   -1.34949894059990
H          -2.17182830365953   -1.97691704844609   -0.38473300483301
O          -2.16324968886028    0.82822538085468    0.95233979695950
H          -1.73931611599847    1.46243787880551    0.34658465488881
H          -2.52715394416538    0.13265860152380    0.36159872757779
N          -0.17415466190979   -0.59208032688208    1.91397841809299
H           0.72860630686323   -0.03623960258643    2.03473726449090
H          -0.98108103689801    0.05299130465177    1.63071050293112
H          -0.03881713488329   -1.27726706976393    1.12708199424431
H          -0.40081377351328   -1.07994515935457    2.77464397521640
