    26
        -50.46601483  Gyration_radius:  2.55419872317 Dipole_moment: 2.027
 S           1.62666448957781   -1.04654674745041    0.99648142563359
O           1.15251423997196   -1.18656744041247   -0.38750953815614
O           2.50246587951716    0.09794492258048    1.13863775857501
O           0.53552689732523   -1.09638404059435    1.93523623621304
O           2.52411079678422   -2.32480143780611    1.27176165038726
H           3.30990897548864   -2.12623376858776    0.77323274904789
O          -1.48836887142465    1.06352995250355   -2.47313894065728
H          -0.50475116168716    0.99907861267591   -2.37678369097317
H          -1.63998137634005    1.47318872303485   -3.32486495949711
O           1.11930722108374    0.97694822829331   -1.99016249166356
H           1.25341070889709    1.64591060508225   -1.30445014968308
H           1.25708154145719    0.12779246148350   -1.53043440230731
O          -1.74819473029009   -2.40097936808166    1.85696996555402
H          -2.23496554735843   -2.14103871730697    2.64100613412876
H          -0.83613171061411   -2.05249672611487    1.98457066138781
O          -1.55191643741998    1.75256821365479    0.19613622795132
H          -0.62132571059426    1.97539727219813    0.39237926099605
H          -1.66275041677969    1.88134977171479   -0.76036122683342
O           1.12076276284017    2.20495643180941    0.52223047807137
H           1.41237274419926    2.91512932243952    1.09636735534797
H           1.64700972783588    1.40918280081761    0.79096626006520
N          -1.45655966609673   -0.84400675381084   -0.30001657408686
H          -1.82269560152620   -1.50480571584360    0.41850832096713
H          -1.91297341025628   -0.92332444227328   -1.20528529365516
H          -1.55706226875223    0.16069928588563    0.03412211353708
H          -0.42345908583545   -1.03649146589420   -0.39559930035261
