    26
        -50.47361560  Gyration_radius:  2.43378730104 Dipole_moment: 3.324
 S          -1.36669992690925   -0.06716617941638   -0.66291623407052
O          -0.62293351166709    0.35487773891990   -1.83487346990816
O          -0.78722339534005   -1.30035124949294   -0.10576969623774
O          -1.45654720940243    0.96741316892634    0.34933329015806
O          -2.83116323976046   -0.39321960882600   -1.09384234866163
H          -2.72454499956002   -1.10298828385656   -1.75428723923531
O           0.72539186662518    2.40829602550435   -0.21599969939152
H          -0.12141443289506    1.97564643193721    0.00474014862995
H           0.75582474703578    2.39914386102788   -1.17605289427212
O           2.51749207880044    0.57627380595102    0.57549553204914
H           2.01652854562617    1.39413971616038    0.36123945904729
H           2.47344815293139    0.04838856724327   -0.25080145990725
O           1.72872499725666   -0.85016999342359   -1.55204057495323
H           0.91137864748826   -0.34376499553803   -1.74372883700863
H           1.43354913137641   -1.72351422597731   -1.28593334225124
O          -1.52004573682686   -2.18930614619314   -2.54165624587187
H          -1.03075084760408   -1.50481153284097   -3.01128704220029
H          -1.12764340570893   -2.23135641755291   -1.65562024003767
O          -0.82270996589322    1.32530862996468    2.89895670227155
H          -1.28050293048445    1.24851099302404    2.03727964396932
H          -0.42410361869232    2.19880470191550    2.90098523560250
N           0.71795179480996   -0.65867617496683    1.97616664727359
H           0.08507951612602   -1.00636711678459    1.20827022096092
H           0.18023004206366    0.06680641505638    2.51239085306610
H           1.01639923378081   -1.41981930999776    2.57590017096820
H           1.55428446681357   -0.17209884076507    1.48405143002006
