    26
        -50.46564529  Gyration_radius:  2.64357710778 Dipole_moment: 3.151
 S          -0.31690027856912   -1.67742995335642   -1.60580556611240
O          -0.86546804017393   -2.92516953664929   -1.12873298512014
O          -1.28385209991858   -0.61751171854336   -1.76622374741112
O           0.82813138441504   -1.22972792942118   -0.79641307060451
O           0.28645395229607   -1.98842778029592   -3.04686656138323
H           0.37801469899459   -2.93620565621702   -3.02828762578969
O           1.69417830974257    2.41540809939277    1.24905064004507
H           1.01484366114739    3.07409401024660    1.08913530122649
H           1.81505193669138    1.94591540298283    0.40232801766280
O           0.89300139012503    0.79592662194757    3.24249576663852
H           1.26733933372963    1.45807622605940    2.62063027343222
H           1.63751954157945    0.33396463654521    3.62940949501856
O           1.69941264560680    1.19666305127761   -1.20780254900404
H           2.40437660711237    1.18107318764679   -1.85594159228986
H           1.40631053343961    0.25788598161842   -1.09473192461562
O          -2.57063791538140   -1.79205312626755    0.55325069131180
H          -2.00095526333952   -2.37127241397214    0.00342200964829
H          -3.09868843913474   -1.30149748231246   -0.08213670740156
O          -0.96471273419886    1.79356179898143   -0.66993830409217
H          -0.05886109388637    1.92854169955008   -0.98264627978418
H          -1.28204550935244    1.04443537277977   -1.21193314439070
N          -0.57994230191212   -0.11566914881559    1.17091333875203
H          -0.81257509162463    0.76752747497037    0.64931977314657
H          -1.43112456214251   -0.72224852644509    1.20393593270570
H           0.10495375187291   -0.61845183089242    0.56468390133445
H          -0.16382442710834    0.10259154919572    2.09888490708289
