    26
        -50.47343734  Gyration_radius:  2.45079246094 Dipole_moment: 2.553
 S           1.34883415310203    0.04959800085248    0.77943938415926
O           1.45098109846306    0.35327417101482   -0.65040105645223
O           0.53464021188028    1.04388753189222    1.46280893871555
O           0.86372368722299   -1.30174024436413    0.99763371123607
O           2.78950506183843    0.10907252994897    1.37612888312077
H           3.06714227977361    1.02189182511918    1.16524346323920
O          -0.02213023744149   -3.21349224926218   -0.61643362351343
H           0.46406971084088   -2.65128361156737    0.02239700369430
H          -0.78725839100375   -3.54000058815284   -0.13704689083211
O          -1.19614720667050    2.29083075067260   -0.08860505819993
H          -0.53033397324808    1.82888878436577    0.46924394109957
H          -1.57803019341928    2.97773687733091    0.46020825741692
O           2.59857351169041    2.55928671351771    0.40837669999953
H           1.82316291287499    2.68192888977442    0.96795293802932
H           2.27670726645579    2.06308250338188   -0.35906825279730
O          -1.70787040143689   -0.89886233314110    1.54895255011075
H          -1.68725901254166   -0.15683160579622    2.15739031797016
H          -0.76584292668751   -1.11891394534722    1.40393711098250
O          -2.48085525451351    0.05964067592171   -0.84395805754259
H          -2.38559111468491   -0.37988051348614    0.02913115724268
H          -2.16065471472253    0.97263630967074   -0.68936702629933
N          -0.38427589775547   -0.95582919489409   -2.00561032487610
H          -0.32096723388115   -0.91298387961683   -3.01642505958456
H          -0.29077045403216   -1.93780743242986   -1.64840567017173
H           0.39324872073529   -0.39883637729605   -1.55444358360030
H          -1.31260161283839   -0.54529358810823   -1.63907976314808
