    26
        -50.47291163  Gyration_radius:  2.4315237112 Dipole_moment: 3.120
 S           1.02899879520625   -0.30345695849914    0.27616148311197
O           1.77382221437815   -0.11374573164968   -0.95427412328087
O          -0.16889772098868    0.54317142049498    0.30108108344682
O           0.65493016450175   -1.69757311158950    0.49874598670276
O           1.91623787838536    0.11826246130109    1.47641954693361
H           2.40508213898389    0.92400058256391    1.13713371057357
O           2.92602362777580    2.07120277938126    0.13960362820277
H           2.14571702688977    2.63045203761198   -0.05582638167045
H           2.95731665530770    1.43782289553781   -0.59127512046262
O           0.43978760212079    3.00301905637731   -0.37929396421572
H           0.14880645721486    2.09187959823467   -0.14819457849343
H          -0.00131524901435    3.59020784321580    0.23696898484211
O          -2.61363704765362   -0.44828314227479    0.75467718506315
H          -1.85420985678070    0.15738049501650    0.65154108552070
H          -2.36866343857480   -0.97765991057538    1.53791767806716
O          -1.07863739170620   -1.78748454023357    2.53747526095068
H          -0.37724087636770   -1.83353341823453    1.85722581976987
H          -0.66456881713503   -1.41377603721128    3.31658393775000
O          -0.26780917345207    0.04888684447618   -2.60046732268795
H          -0.57735906373359    0.94340563458275   -2.43619413711192
H           0.58773709434698   -0.01715119511042   -2.11695733932094
N          -1.42433232413375   -1.82395221176865   -1.11223879278773
H          -1.10961854178913   -1.12111685076622   -1.83606104826576
H          -0.57281727882511   -2.00497296230947   -0.52104763216272
H          -2.11267313221864   -1.34487249368108   -0.44095080299874
H          -1.79267974248502   -2.67211306486957   -1.52875414738397
