    26
        -50.47636609  Gyration_radius:  2.4228705652 Dipole_moment: 2.571
 S          -0.57845161184681    0.45641350616741    1.41570911304243
O          -0.62630807287097   -0.96398623053429    1.71428402993482
O           0.78121674353536    0.86418639611969    1.04892532426866
O          -1.54150429932961    0.83853693665504    0.39182556680727
O          -0.97147005293145    1.25170842520550    2.69922525833727
H          -0.31211918930756    0.94925986104237    3.35226915752898
O           0.36540382491759    0.53218542763894   -2.83155599734213
H           0.23983113955329    1.39302111588404   -2.36979331452861
H           1.06085892615222    0.08024222151930   -2.32418661158998
O           1.13153391961308   -0.08526592427575    3.58627014167767
H           0.64770827948283   -0.85217669877183    3.24982905069841
H           1.53413182332748    0.31559583446502    2.80447434021347
O           1.84060939625717   -0.64072196754952   -0.80920478688220
H           2.78773987117559   -0.64172636918696   -0.66162291614354
H           1.45104665897528   -0.06383292259425   -0.10536270839081
O          -0.17015833153427   -2.50553369082225   -0.40156752456570
H           0.69663435715470   -2.13187735912451   -0.62840487883149
H          -0.38543768114048   -2.11032925227590    0.47023121200843
O          -0.03088404244066    2.51167218849787   -1.07236223629232
H           0.72182345038747    2.47651095383524   -0.47384246885951
H          -0.74174177168065    2.07173516889350   -0.57210349633252
N          -1.61344031282664   -0.76043688082645   -1.72001777134367
H          -2.47168644786236   -0.97813032865094   -2.21267679218141
H          -0.89293897047317   -0.25992512196965   -2.33880524421002
H          -1.78221441430869   -0.12517945076223   -0.90292484140778
H          -1.14018319206871   -1.62194583858979   -1.30861160555749
