    26
        -50.47298372  Gyration_radius:  2.48767998508 Dipole_moment: 1.941
 S           0.81341283777246   -1.26946803316211   -1.52726426419854
O          -0.55843497753402   -0.77614971290458   -1.42129414366691
O           1.69303962001136   -0.28665395040272   -2.12663581835911
O           1.29350660309733   -1.81265857092689   -0.27463481608799
O           0.76434446499242   -2.48884365284692   -2.53944199449109
H           0.71627935936278   -2.04894455757511   -3.38160084637966
O          -0.90683583923304    1.85349899649572   -1.05674585770104
H          -0.85517922081183    0.90520451199812   -1.28952395982744
H           0.01250924265639    2.12181628752202   -0.90968762931740
O           1.62992385288639    0.17899145240402    1.45296678238715
H           1.75744423138916    0.92937928345405    0.84470269433812
H           1.66120465673555   -0.61499113541240    0.87900623622998
O           1.83958465634150    1.86117116694215   -0.67936869489962
H           1.82450590064043    1.06636095475886   -1.27289825422799
H           2.58864997541141    2.38935039721618   -0.95986432885320
O          -1.18362370057344   -2.24815050825063    0.63463448396741
H          -0.27677120645262   -2.58756244583039    0.61219798474770
H          -1.21683497393238   -1.73060875478099   -0.19901437657706
O          -2.32363635791461    1.79583492736371    1.13290391744447
H          -1.78953430061950    1.92725751309763    0.29977908854671
H          -3.20992723003515    1.58360780644462    0.83641131668266
N          -0.86583454489368   -0.14697321516342    2.21346208412499
H          -1.47659037103229    0.63770202301109    1.85743808816452
H          -1.09198223919355   -1.03383545376522    1.67209783806630
H           0.15454328035207    0.07651310936176    1.99237278815191
H          -0.99376372941826   -0.28184844906418    3.21000169172678
