    26
        -50.46908257  Gyration_radius:  2.43744213044 Dipole_moment: 1.153
 S           0.92248561451129   -0.57129143983466   -1.49454038626303
O           0.31029137850540    0.59087622657828   -2.10323442372263
O           2.11741624345063   -0.23600917180198   -0.73820753682035
O          -0.01364784880411   -1.36239336935103   -0.71353109271857
O           1.37996629127294   -1.50689405916837   -2.68698566029618
H           1.81902395748544   -0.88895966562839   -3.26159204633583
O           1.39573596822081    1.65779047149232    1.03426476545016
H           0.71711413665233    2.15755840901863    0.55260626917887
H           1.84518230516439    1.10399712111522    0.36841543168409
O           2.15455894885112   -1.70909675336332    1.54397342695372
H           3.00539920182563   -2.13945920391800    1.63391677520943
H           2.19438901361099   -1.21880804157388    0.70320950519228
O          -0.80143449675675    2.32641090177677   -0.50448131349945
H          -1.09817996582451    3.06322616235786   -1.04072064244873
H          -0.44474131896281    1.65724145923840   -1.13995721522269
O          -2.63697135315186   -0.94960318463803   -0.93820948025483
H          -3.03106467039429   -1.82201039670095   -0.97980719778243
H          -1.66821912842370   -1.08627134523711   -0.97443395724091
O          -2.46537676861135    0.81409456720969    1.10214786225301
H          -2.01230700708369    1.52336756426542    0.61271190831090
H          -2.74569443610923    0.18906162821373    0.40416947895264
N          -0.19819389818715   -0.33057513588226    1.75689019646434
H          -1.17883783193905    0.08045312469721    1.71000744625074
H          -0.06505702699122   -0.90870318282722    0.89855662799431
H           0.50027270261008    0.46263646267700    1.67928696495094
H          -0.00211000092167   -0.89663915871567    2.57554430375946
