    26
        -50.46844360  Gyration_radius:  2.50902222697 Dipole_moment: 0.812
 S           0.54183039820693   -1.23720636129443   -1.34143656037576
O           0.88718046017080    0.11336023692683   -1.76324661157222
O           1.24277315615972   -1.60215727411083   -0.12247605251647
O          -0.89061359863247   -1.43703850981637   -1.25006679090636
O           1.05730786406694   -2.22178205742671   -2.46591065640433
H           1.99470137264936   -2.25208022297089   -2.30200128740132
O           2.37602904896708    1.47571746005805    0.05857207117241
H           1.97371141146668    0.87633298567860   -0.59717758873984
H           1.97352267176413    2.33266200547386   -0.10332200011353
O           2.10044931003420    0.95932519378921    2.71782035359468
H           2.31997339920974    1.19909208886211    1.79257988156708
H           2.77152392357626    0.33325303119442    2.99269434586419
O          -0.69919733536809    1.79621484363473   -0.43887901812298
H          -0.12610169117607    1.32562310495374   -1.07637806221136
H          -1.60556423340124    1.53998050748127   -0.68513912606021
O          -2.34561078818207   -1.36416526415786    1.09901787529695
H          -1.86283015265238   -1.68190320154029    0.31714130820047
H          -3.02835301368801   -0.78583642270679    0.74426086655605
O          -2.85741974960932    0.35712132643941   -1.28635471964268
H          -2.17092232124425   -0.33838179064416   -1.37268956587714
H          -3.26118302773188    0.44476131553026   -2.15060119317745
N          -0.08777570148274    0.03775913624929    1.47714727538586
H          -0.33078966248342    0.84449503259479    0.83901816565872
H           0.48796196945728   -0.64305525985378    0.91949652843554
H           0.50546824707491    0.37553548258253    2.25825475575541
H          -0.96607196714386   -0.44762740692112    1.73967580563323
