    26
        -50.46266218  Gyration_radius:  2.75141441591 Dipole_moment: 2.536
 S           0.90175591448678    0.25182069708875    2.39596430671132
O           0.69086501165461    1.62897113127158    1.98980885567802
O          -0.33505433068884   -0.52759650354175    2.33934812521856
O           1.98806721072049   -0.40466174219556    1.69842433783443
O           1.33429296663420    0.30336979212599    3.92390189902127
H           0.74722213856147    0.95739518990825    4.28995582598677
O          -1.49494354142658   -0.56963314804085   -3.33781862027521
H          -1.99469312598287    0.16892893023796   -2.92861084865613
H          -2.13725203499905   -1.25310643510346   -3.53346694015619
O          -2.68842201673059    1.38808621457236   -1.90177842150765
H          -2.32223988278166    1.31195130688348   -1.00326276921946
H          -2.58076445886464    2.30554824527246   -2.15763196833056
O           0.42493526587819   -2.43181346760341    0.69085728911048
H           0.00458400610882   -1.86310859167273    1.37444931235949
H           1.36104038324420   -2.36403241402162    0.90872233066574
O          -1.27858293639689    1.04331574061227    0.44325494226465
H          -1.44775598138634    0.34913769763243    1.10230130404828
H          -0.55884832492461    1.54604072380624    0.89424731612026
O           2.60170069653785    0.44884183507445   -0.71223999474427
H           3.53286609507451    0.27317727931938   -0.85221887946824
H           2.42404090996884    0.23986052058136    0.23453177818185
N           0.16794060654172   -0.57112907885596   -1.19812120466530
H           0.23034221701357   -1.44182218206335   -0.60582719722554
H          -0.39254300409477    0.12005110523936   -0.64687590074783
H           1.12610165408552   -0.18474410334310   -1.29802894614867
H          -0.30465544823016   -0.72484874318389   -2.10988591205431
