    26
        -50.47167180  Gyration_radius:  2.4313299356 Dipole_moment: 2.758
 S           1.03628799339870   -0.08624052150360   -1.67102759781926
O           1.78131138155512   -1.31968464492378   -1.78276035693843
O          -0.36803921866918   -0.24211394616702   -2.03285234500860
O           1.20781615893410    0.58189741464607   -0.39599789688157
O           1.65399035521902    0.91204383925932   -2.74865034621851
H           1.75198171483885    0.36255284983986   -3.51964470844785
O          -2.25142314434362    1.49030223637578    0.74644134329372
H          -3.05454210368503    2.00780091244027    0.81291240628283
H          -1.75807111106526    1.84047042262517   -0.04351025364921
O          -0.80702933729329    2.24128565011612   -1.32431724354641
H           0.09367375683779    2.37103801081410   -1.01050628799776
H          -0.77336442503858    1.35867995749970   -1.74848109976473
O           0.13633158229393    1.02563669730754    2.03884772436676
H           0.64174289017482    1.01295870637972    1.20375162806919
H          -0.75442874979121    1.31792119062419    1.78060622108372
O          -1.86959020508889   -1.14304008776893   -0.04028631201901
H          -2.19375206339545   -0.27686828601815    0.26580927335232
H          -1.36669795603550   -0.94016621201085   -0.85754520346310
O           2.31516434177288   -1.88457126464898    0.69912471545856
H           2.15146015132912   -1.80085095667189   -0.27161328645674
H           2.75754292375795   -1.06487192519496    0.93496925445695
N          -0.07096579222544   -1.58205972447057    1.81703097663185
H           0.86208184737245   -1.83401967867077    1.38376100887272
H          -0.31256846370650   -2.21052606377697    2.57425321100609
H           0.01207719901938   -0.57041914118349    2.13269609649678
H          -0.82098974619002   -1.56715544494008    1.05698906882790
