    26
        -50.46899937  Gyration_radius:  2.4498172234 Dipole_moment: 3.135
 S          -0.47405684781612   -0.18072968203582   -1.82586398950435
O          -0.32527711606991   -1.45875983943995   -1.13963139736331
O          -1.57080264091711    0.60011008017636   -1.29132275527939
O           0.78055320481155    0.54683422839496   -1.87590851968477
O          -0.88423818608831   -0.50077771921475   -3.31961883021455
H          -1.81798578173899   -0.34268490311576   -3.24476943975533
O           2.98013753238660    0.41246355672786   -0.25122361500094
H           2.80594128907489    1.28719815608615    0.11154373331861
H           2.40100785780841    0.34918488193326   -1.02913558959682
O           1.45470406649908   -1.47835372768148    0.87508670306636
H           0.91294544741551   -1.61486282630517    0.07268195886488
H           2.15745083535906   -0.85270128755959    0.59422090220960
O           1.05694866439791    2.62825314859932   -0.27405902904123
H           0.93732276868616    3.44008091984746   -0.76884498134090
H           0.92080605904689    1.89460491022639   -0.91754392665290
O          -2.07114583552473   -2.17741371278284    0.68075998726295
H          -1.95922360889754   -3.12917057333416    0.71972235128656
H          -1.51754492723410   -1.87720779642122   -0.07905061162793
O          -1.11282127184476    1.72157118356950    1.05840236636763
H          -0.29730701731891    2.18621335831589    0.78803156259411
H          -1.45798813996185    1.35218135376936    0.21587045278409
N          -0.58360308381609   -0.55861896347111    2.21708492534014
H          -0.79326721619374    0.42397999827936    1.84187399493313
H          -1.30530657391139   -1.19853599603486    1.81025124972166
H           0.34699817726401   -0.88932403940527    1.80156503368083
H          -0.58424765541567   -0.58353470912023    3.22987745362802
