    26
        -50.46797988  Gyration_radius:  2.45752851464 Dipole_moment: 2.249
 S           1.42072859450163   -1.15604276337583    0.55850148917963
O           0.08106427483046   -1.07718389188910    1.12670324042475
O           1.35611142141642   -1.17488792026373   -0.90697588908610
O           2.31543838107445   -0.15236363419037    1.06130588471145
O           1.98141412864614   -2.56931739625131    0.99085991436070
H           1.22789235152402   -3.13177407518553    0.84306666541608
O          -0.32155518601914    1.07058193418045    2.64422829166629
H          -0.13014528370949    0.24255708913691    2.15129426754999
H           0.12701103770729    0.98925448676218    3.48694405269794
O          -2.00534127423684    0.51631207596462   -1.74662955979591
H          -1.81638423680779   -0.41322727167768   -1.97972088865435
H          -2.34211803341090    0.46171023157591   -0.82479123878797
O           1.24684572902627    2.27986620115785    0.80557214853960
H           0.56656178400726    2.14056810973192    1.49165968813864
H           1.86226535668163    1.53231008618421    0.94289799683656
O          -2.41174438842565    0.08417407562615    0.85011552189398
H          -1.66865794832586   -0.53783342129851    0.89853170470598
H          -2.21638709429122    0.75338080322613    1.51327282409874
O          -0.90797451322472   -1.96147141423828   -2.05662825824856
H          -0.64854884237585   -2.36862112079373   -2.88433918249035
H          -0.07768573765678   -1.73546164167256   -1.58726032235631
N           0.47541960459550    1.26066297236902   -1.49133383924952
H           0.92838670276289    0.32408265469363   -1.36383678524710
H          -0.58436265589654    1.07384498352407   -1.60907058835588
H           0.69061282061515    1.81489291072514   -0.60823992777949
H           0.85115300699152    1.73398591597928   -2.30612722016988
