    26
        -50.47149544  Gyration_radius:  2.40922776695 Dipole_moment: 2.580
 S          -1.11777911121397   -0.00261231588348   -1.42631420091119
O          -1.94177054370631   -1.09333822020889   -1.87953554794100
O          -1.66052024929875    0.66292624175938   -0.24580545063274
O           0.27797826660868   -0.35665479101953   -1.24882108352004
O          -1.11744685631622    1.09313116105683   -2.58244996177530
H          -2.01165245262310    1.06531338753977   -2.90748031293604
O           2.47463471992988   -0.57189505729526    0.33434137728273
H           1.70726958781914   -0.60993289156064   -0.26064952666638
H           2.97942281631123    0.19090066763857    0.04064707305901
O           1.02593182627843    0.11151432923915    2.48408808882495
H           1.70172661292914   -0.21944919974286    1.85331941396259
H           0.78002520795038    1.00178666382114    2.13257826866029
O           1.53027277613595    1.99660873003775   -1.34178256795549
H           1.09438510456354    1.12588537011862   -1.41390858954452
H           1.16719355177710    2.52706178122160   -2.05253646236406
O          -0.72407549718679   -2.83352895213812   -0.28296206939316
H           0.18061669150343   -2.79080746767108   -0.60400083606506
H          -1.25698886862224   -2.34146197416812   -0.94180814090006
O           0.19243161681956    2.19566927663176    1.05772230883714
H           0.83114431337289    2.32318761008322    0.33523502771101
H          -0.57884497741358    1.78406975921122    0.63302294407754
N          -1.12237390020017   -1.06880517000379    1.68545196118663
H          -1.80204212738823   -1.29619573008340    2.40303322057761
H          -1.49151846500509   -0.34041222062015    1.02989213599544
H          -0.20454560630329   -0.65139714172623    2.11700057664080
H          -0.91347441671938   -1.90156385623254    1.08172234378997
