    26
        -50.47057771  Gyration_radius:  2.49061545001 Dipole_moment: 4.162
 S          -0.66065154541719   -0.42679686828300   -1.44691049793596
O          -1.10230475336535    0.38528715846364   -0.29266035625846
O           0.77717632587883   -0.25952175283262   -1.63832798857424
O          -1.04712473128806   -1.80337272314319   -1.27659501293603
O          -1.38662043362540    0.15615341028534   -2.69312733613480
H          -0.94283780375654    1.02410252433223   -2.82576529500213
O           1.58299623661093   -2.17679345924236   -0.03960741011551
H           0.98251545041626   -2.88236180087398   -0.29744287680539
H           1.46200988644093   -1.48632575526422   -0.72912596035794
O           1.44094206193561    1.59450311344660    2.27126616493053
H           0.94688522464224    2.08435194286804    1.57887405289012
H           2.36466458660625    1.63959080548885    2.01856141181567
O           0.29202222239370    2.18824295172124   -2.52524706039390
H           0.82870680327725    1.40359031995121   -2.31763984907185
H           0.24112272825053    2.68155915669427   -1.69426310879804
O          -1.62004266403108   -2.64479665296704    1.21953118400916
H          -2.38576081361296   -3.21881646242290    1.17877547827107
H          -1.46335704940941   -2.35564020086787    0.29816189536175
O          -0.05008285477629    2.68364333986504    0.26934031603782
H          -0.47181613835640    1.81589027025666    0.03354574735507
H          -0.76324677668790    3.24777243571744    0.57426318815782
N           0.20331383959115   -0.73088114760609    1.70529691273694
H           0.86016478571928   -1.35966105535489    1.16292440753769
H          -0.42152455663692   -0.29328561114303    0.97538385071495
H          -0.38092118549602   -1.30825803882986    2.30857574143723
H           0.71377113469361    0.04182406974683    2.18221240113289
