    26
        -50.47037325  Gyration_radius:  2.43425976506 Dipole_moment: 2.964
 S          -0.40015964569344   -1.77916530630793   -0.37870219385907
O          -1.29786890332172   -1.53791285374531    0.74835187280327
O          -0.77686459205739   -0.95829747834063   -1.52825810964978
O           0.98552575293636   -1.65507753586427   -0.01891490348464
O          -0.63385222608740   -3.27921781517195   -0.81983842001117
H          -1.55868435879467   -3.29447853949440   -1.04340067253653
O           2.71603918011291    0.28199912578575   -0.82099252922645
H           2.22142828262575   -0.55211154767215   -0.74816130723860
H           2.09858135819685    0.89509968464134   -1.24523648180855
O           2.47831024361906    0.00411816255013    1.80401134042036
H           2.73246672047170    0.30748090929796    0.89941452838363
H           2.43843208591520   -0.95342567672175    1.71332392371375
O           0.40738298740478    1.36258011721075   -1.92860775073390
H           0.25167564868626    1.62181740032704   -2.83813217717672
H           0.00022187591837    0.47081322658200   -1.82310366348793
O          -2.80588991844608    0.44089654803672   -0.49298043087421
H          -2.94737246148908   -0.12300113710857    0.27321664487424
H          -2.14674954317694   -0.04685688725799   -1.02391495167133
O          -0.98999060642599    2.28815205719349    0.22590593093323
H          -0.39896217836216    2.19698226238141   -0.54300094932547
H          -1.80609344663333    1.80749387621368   -0.03553420993809
N          -0.11398183693919    0.50443313342796    1.94304954395544
H          -0.40707725507295    1.31816039185200    1.31082991863039
H          -0.57646587451899   -0.36060309155455    1.56275835101982
H           0.94309664180193    0.36340096065308    1.91043315332887
H          -0.41314793066932    0.67672001308821    2.89748353295957
