    26
        -50.46604649  Gyration_radius:  2.49503776316 Dipole_moment: 2.552
 S          -0.33168753183950   -0.46733625710390   -1.82320618231434
O           0.74391695461033    0.51209080863658   -1.88091089566728
O           0.03456300349771   -1.57584778379244   -0.94304142702316
O          -1.61476965485454    0.10391904774847   -1.50596863060431
O          -0.45053901512289   -1.08814428284282   -3.27134369914811
H           0.41717640020524   -1.45592244791719   -3.40174260685551
O           2.30847605776075    0.64230649591502    0.34564371623838
H           1.84435266620666    0.38621048163252   -0.47089329381662
H           2.13828750586650    1.58616784153799    0.43213307671930
O           1.94240827464857   -0.63560452957531    2.67076357674469
H           2.18812012327297   -0.12948325922617    1.86369255678486
H           2.54726507446518   -1.37739847186440    2.71441717691954
O           0.57204547827318    2.81318510202843   -0.56147579082985
H           0.62688659918906    2.02566249352196   -1.14583457072106
H           0.34666175672984    3.55341109083316   -1.12634550559437
O          -2.46319961410512   -2.11253822137951    0.09818755977585
H          -2.93519106515986   -1.39570167817696   -0.33447201814785
H          -1.63954518130000   -2.19278967467210   -0.40337231111201
O          -1.43064100581804    1.52116714736400    0.74807223500530
H          -0.72311625658264    2.14174915108319    0.49227566963212
H          -1.70851794915830    1.10931165136803   -0.09367311946019
N          -0.48091677689335   -0.79964762635102    1.55081660110914
H          -0.85225212374174    0.18674029324925    1.40340434351696
H          -1.24916491514837   -1.40698291738328    1.83770584704177
H          -0.16797071149599   -1.13746698132539    0.60655440519952
H           0.33735188653408   -0.80705744328999    2.19861328662119
