    26
        -50.46577982  Gyration_radius:  2.56060018666 Dipole_moment: 2.870
 S          -0.38806987484354    0.40703862583170   -1.75412660002422
O          -0.28344972847050   -1.01549023207352   -1.99132034743801
O          -0.93679019910696    0.64282211207006   -0.39117016305828
O           0.85904565800520    1.11502817842382   -1.92469733999280
O          -1.41336740717815    1.02296432410643   -2.75449476072144
H          -2.26498461334923    0.63835104381177   -2.47092442713138
O          -3.38451090886795    0.13509519285426   -1.21816548767204
H          -2.57787927425723    0.23384903533110   -0.67534202429363
H          -3.99698572714866    0.81509600989453   -0.92871990240896
O           0.35917009650476    0.31936498088955    3.34317836918279
H          -0.43368101400984    0.46768198788888    3.85924368007846
H           0.45705509278495    1.10439966502951    2.75305988667798
O           2.60148005730322    0.63662193809651   -0.07646839549893
H           3.47319943288609    0.57285981677457   -0.46864935345187
H           1.98384173438733    0.86087135627874   -0.82173831789441
O           0.13855161756245   -3.11196601072576   -0.44616611077093
H           0.63471282820945   -3.75664002327169   -0.95222694335756
H          -0.12214713900247   -2.41208015214843   -1.08748377434835
O           0.55306067401276    2.12463807881293    1.37180025452015
H          -0.06572123737191    1.77947514662714    0.70428742641782
H           1.42998659386715    2.00081447429428    0.99051197051205
N           0.68411997414565   -0.94389418818454    1.00745130423491
H           1.59127668196905   -0.54112012387047    0.70256887508417
H           0.56220266919880   -0.76852633121331    2.02636390141276
H          -0.04996059045986   -0.39313131513522    0.49662079456329
H           0.58984460321766   -1.93412360041361    0.70660749535341
