    26
        -50.46892620  Gyration_radius:  2.48092737782 Dipole_moment: 4.936
 S          -0.73532974266391   -1.68672831252055    1.17483349920285
O          -2.13615347345493   -1.39468449250881    0.96337470836440
O          -0.13420224746222   -2.39126364187299    0.04931579864052
O           0.05549887684287   -0.52978377843029    1.55890784933700
O          -0.67973529633607   -2.67787585426011    2.40997304523492
H          -1.45977834446414   -3.19810513625870    2.25208486757312
O           1.07426847416404    2.50594901724515   -0.37098320069753
H           1.72357580849565    1.90664045303183    0.02072952637975
H           0.31960019647425    2.50705160516898    0.25952682738899
O           2.42237953238980    0.26072837600855    0.76987825537861
H           1.54770275197267   -0.02268199571849    1.13267342183815
H           3.03581060317266    0.24117206960593    1.50526322357136
O          -1.02108048786401    1.94936617084802    1.20968330601686
H          -1.68795109010617    1.72264786287626    0.54775541542478
H          -0.67683059488753    1.09319830976833    1.51590740669378
O          -2.36453897756623    0.50480953454975   -0.80325951659578
H          -2.29402962199582   -0.23359037067319   -0.14994973667341
H          -3.24697780882803    0.45063674960168   -1.17320291073348
O          -0.07766337621593    1.02675110501366   -2.21626246624564
H          -0.94981943344205    0.86726927859706   -1.81053769020189
H           0.34659943122678    1.72414208592238   -1.64845184266718
N           1.40976525574603   -0.93884368090828   -1.45763902673451
H           1.89369315700865   -1.44722261715412   -2.18884855715501
H           0.78252507979741   -0.14092111169119   -1.86611911611892
H           0.78146899299461   -1.58603984051800   -0.89395587321533
H           2.07120231500205   -0.51262181572020   -0.79069720400657
