    26
        -50.46995853  Gyration_radius:  2.43667455552 Dipole_moment: 2.074
 S          -0.55570399357949    0.24946455691228   -1.25897398003578
O           0.26143568329581    1.42035976255218   -1.54166007320606
O           0.28607070446248   -0.93457584391536   -1.05699629166641
O          -1.45187071220645    0.45122687298253   -0.13625934000499
O          -1.45145700042388   -0.03556975293484   -2.50600381711586
H          -0.79198530762082   -0.13417377553701   -3.22097395134318
O           1.29146220938785    2.20244265788437    0.73729734201905
H           1.82785488477261    2.98192262007805    0.58203800363203
H           0.87328157050539    1.97938203665161   -0.12833141025757
O           1.77216336410068   -0.45463767280406    1.14110523633084
H           1.44005216682717   -0.71548862427010    0.26082216409278
H           1.81774839804831    0.51779013943912    1.12053177578410
O           0.93504946839109   -0.13254544828928   -3.62816310023065
H           1.18587581715017   -0.82941564386455   -3.01106815490020
H           1.00971846628243    0.68882933677397   -3.11823617447549
O          -0.90172005613847   -2.91014807153396    0.35960828747396
H          -1.08711583540292   -3.65929967571454   -0.20706576056282
H          -0.46770559468869   -2.24131097039500   -0.20559407230865
O          -1.01800606858592    1.84219279415412    2.33943517362456
H          -1.54959690929778    1.71587595028568    1.54578284989900
H          -0.15131100832105    2.11194786389681    2.00478395730585
N          -0.66679839117802   -0.84182221411181    2.02676645940807
H          -1.08724447168905   -0.36399630823735    1.17992747819298
H          -0.94177284557757   -1.82634184190177    1.99191624337085
H           0.38582998238473   -0.75485811363507    1.87400619167265
H          -0.96425452089907   -0.32725062446577    2.85530496329894
