    26
        -50.47208094  Gyration_radius:  2.44922964606 Dipole_moment: 1.554
 S           0.22375701649991   -1.59892190655781    1.35152942092987
O           1.00184637964628   -0.39271114686227    1.61293738274602
O          -1.18686742919260   -1.40103092076956    1.62567843793251
O           0.49157524598421   -2.14685228245762    0.03689178091292
O           0.72366859446507   -2.69273554776163    2.38299084466508
H           0.31321234418919   -2.41913793609979    3.19689512915383
O          -0.93994458927205    0.69246750288049   -2.27647959831262
H          -1.51393295786055    0.04254060021316   -1.81446986864067
H          -0.86116104270395    1.45242501523083   -1.67300057438922
O          -2.10187642825648   -1.26550761144217   -0.85611456381453
H          -1.75991845882043   -2.08838137716119   -1.21195014614096
H          -1.85745022783353   -1.28813246206716    0.09121521466654
O          -0.99131491668099    1.31217628806563    1.90933797113734
H          -0.17860862763368    0.76612519466240    1.93999028749343
H          -1.69527155439458    0.65525788778609    1.87480830256616
O           2.12299973605382    1.42050562294412   -0.04499678855028
H           1.35214795197663    2.00703979367912   -0.14694995480555
H           1.89750327899426    0.83517426036481    0.70204475728902
O          -0.39567575719217    2.55602442144744   -0.32379739477281
H          -0.69503435979600    2.12449665602241    0.52034389966322
H          -0.65554272140163    3.47585359346556   -0.26273412053459
N           1.36373169018178   -0.42236310592633   -1.75401589174438
H           1.95451751553065   -0.77905876048526   -2.49569391643552
H           1.08774273657342   -1.18565681455002   -1.08171128326932
H           1.84504989928329    0.33040258446608   -1.17702378204878
H           0.45484669169789    0.01000044092549   -2.12572554569859
