    26
        -50.47017849  Gyration_radius:  2.43376083107 Dipole_moment: 2.357
 S          -1.74014504422110    0.39973315478221    0.55681263936837
O          -1.00905129600974    0.19070331416110    1.81177455752852
O          -1.28498776078114    1.60672041215682   -0.11643911435886
O          -1.72899449551530   -0.77515190143940   -0.27157056099256
O          -3.24348190997112    0.66355740654813    0.96818036892338
H          -3.18529631958570    1.47936890378444    1.45402204179028
O           0.05926380479355   -2.98857410737191   -0.75087994721956
H           0.09997821162114   -2.43503386374372   -1.56702084757265
H          -0.87146657369343   -2.95471403547106   -0.50671249901800
O          -0.32628478891044   -1.09913303812983   -2.57170266098628
H           0.24762523633046   -0.32163849709996   -2.50588516877974
H          -1.04055793107822   -0.92488792921351   -1.93507062016609
O           2.41592072894424    0.64550563689328    0.25944040669843
H           2.02630195098564    0.85828519033159   -0.60629200239682
H           2.02179607513339    1.30421286073320    0.87343822482416
O           0.75432706189513    2.19819640462757    1.69265116784853
H           0.13367993041447    1.48354915524637    1.93027064817976
H           0.29095289952059    2.68285709745261    1.00238911825530
O           0.72718191695349    1.33997897392299   -1.77362446930101
H           0.71241717488160    2.09233825477115   -2.36718903387856
H          -0.05456701114390    1.44148216733179   -1.17663737679850
N           1.00792484830580   -1.39333451801595    1.12979671869848
H           1.68191102671053   -0.65739827882512    0.74135139852435
H           0.16616557716067   -0.86907319872921    1.47370688150866
H           0.69531355128950   -2.06596165940643    0.36298733754129
H           1.44407314596797   -1.90158793529609    1.89220278178337
