    26
        -50.45757822  Gyration_radius:  2.55673615365 Dipole_moment: 3.359
 S           0.13996841482691    0.54715257107820    0.17451138784155
O          -0.64892659378760    1.44579272218230   -0.62864767580494
O           1.07383679796688   -0.26048536198560   -0.70267130661321
O           0.92674755259461    1.18202080190535    1.20404661777113
O          -0.82436501990620   -0.45824452121141    0.80967383360051
O          -0.03873194300311    1.78970949132029   -3.22239971701889
H           0.74308369229569    2.34135054493367   -3.27742035321327
H          -0.33804565809546    1.82498875497181   -2.29266190639093
O           2.69756181705216   -0.84471572824491    1.48071399084631
H           2.75957389625262   -1.13485909176672    0.56674316923028
H           2.28349698990070    0.03435315332800    1.44040909315917
O           0.21052842981336    0.76461699432408    3.78672555387079
H          -0.56741297414155    1.28713333572843    3.98572269621204
H           0.54205042447102    1.07540006294476    2.92469950024324
O           0.42566489814215   -1.64555264923858    2.60982056076556
H          -0.32931614028247   -1.01711614444868    1.55516358989255
H           1.35797087633826   -1.55946497756364    2.30000022259968
H           0.33127115274235   -0.96619351348839    3.30748760062252
O          -0.05015684679387   -0.82860703717697   -2.79745893814783
H          -1.00424153921993   -0.89744396580642   -2.46901530429006
H          -0.00273477259501    0.05381275016217   -3.23312860047642
H           0.58656857800771   -0.57675296884245   -1.67492279551447
N          -2.38412714749288   -0.62834414757473   -1.64023662119047
H          -2.55264559706109   -1.31126834056376   -0.91249426124069
H          -3.25912811557275   -0.44378837655879   -2.11436849436619
H          -2.07849117245599    0.22650564161472   -1.18029184239663
