    26
        -50.47080930  Gyration_radius:  2.5625375238 Dipole_moment: 3.298
 S           0.23774017380577   -0.13025016742199   -1.43330408244832
O           0.34525614474166   -1.20550733434179   -0.43990827236708
O          -0.93611361136426   -0.30744872895942   -2.26824635545862
O           0.29172726802147    1.17319478132571   -0.79450893951653
O           1.50619288592739   -0.22057644807475   -2.34434624727394
H           1.42019143113339   -1.11094127018508   -2.73588906426598
O           0.42870229121053   -2.59603683965406   -2.78068148584396
H           0.44013863133956   -2.63925404703697   -1.81494573009601
H          -0.35743284421739   -2.07213162001139   -2.98834442217095
O           1.89433040977078    0.34581961574576    2.98123184490259
H           2.11744265863651    0.91286352788692    2.20252534924688
H           2.58888093007227   -0.31363904737223    3.02530777758863
O           2.37929063016554    1.66692213242362    0.74017106989539
H           1.65278682104224    1.43866721401280    0.11835255853382
H           2.44320425476058    2.62356028753868    0.72331962095693
O          -3.07688554360384   -0.00349207782501   -0.74529017867851
H          -2.30180182863278   -0.16261000158192   -1.32893264824224
H          -3.77742404247967    0.30335963974943   -1.32389200941117
O          -1.72685776589459    1.59950797182324    0.92819847571987
H          -1.00483549400385    1.72531632395508    0.28441026980061
H          -2.41080667502403    1.11617916212720    0.41929490298961
N          -0.43977541844499   -0.44423680669568    1.94207686719629
H           0.42004268988809   -0.16166320826958    2.47729288363657
H          -1.02009528835249    0.42240127292407    1.70036089420378
H          -0.12218858957607   -0.83253670964371    1.00731961148996
H          -0.99171009891488   -1.12746762244423    2.44842731960415
