    26
        -50.47023730  Gyration_radius:  2.4986059303 Dipole_moment: 0.907
 S          -1.46138812434650    0.11883133260880   -1.37507757665574
O          -0.93234165621610    1.01634918991068   -2.37613823125879
O          -0.65430724611434   -1.09123067974740   -1.23984630840480
O          -1.70291832444791    0.75364115483500   -0.08993574550227
O          -2.88379183483638   -0.34402625244626   -1.90254455615810
H          -2.81265942269702   -0.23670371763421   -2.84567314451096
O           1.89015874457859   -0.03274664465523    1.71637637773355
H           2.06094058114407   -0.40953063927523    0.83573800820067
H           1.25956875250524   -0.64232311738146    2.15803885895952
O           0.02108167606753   -1.66222505506547    2.72445994887151
H           0.16629698145804   -2.56172272484180    3.01919626583325
H          -0.75653404678567   -1.69451484921137    2.11749781416229
O           1.46697625948207    1.89779157744297   -1.64041979937809
H           0.61030509899833    1.69025483155406   -2.06994120438105
H           1.90978454076509    1.03917314113241   -1.54466554824774
O           1.91719270153984   -0.75820237469084   -0.94943163456593
H           0.94684508701342   -0.90891969567214   -1.06493354773787
H           2.35289860957508   -1.48724966352947   -1.39335704653450
O          -1.98504593112851   -1.73550803895981    0.96560558641721
H          -1.48771207545672   -1.76400349521089    0.12917195644498
H          -2.34824583859742   -0.84186214750582    0.96927220621048
N           0.47976414623151    1.95880240042363    0.79438568668259
H          -0.45573923218938    1.54513406505564    0.55871487689579
H           0.95394148365054    2.13430768879018   -0.14163988090563
H           0.38257149799415    2.80532849299310    1.34284667140223
H           1.06235757182082    1.21115521107220    1.30229997643246
