    26
        -50.46806107  Gyration_radius:  2.49167360888 Dipole_moment: 2.761
 S          -0.89858645657827   -1.34888928873284   -1.06435341140727
O          -0.39137704126033   -0.04482257445749   -1.46890072274855
O           0.15137214959544   -2.34415846045425   -0.99153175330456
O          -1.70163120826849   -1.23855118636402    0.14111708631718
O          -1.87521896804333   -1.84576973537389   -2.21135881752538
H          -1.34126391576386   -2.48285636718066   -2.67524130089670
O           2.12273479296000   -0.28688907596414   -0.63510882863706
H           1.20927092405252   -0.24090482216103   -0.98335836542800
H           2.38027920979920   -1.20438184718258   -0.75265772320650
O           1.41292388927565   -0.09328280976575    1.95782485129452
H           1.13519630206118   -1.03269089715475    2.03582249312159
H           1.85678470531421   -0.04396032045333    1.08577950266525
O           0.94161182077508    2.30295777424009   -1.71263236674150
H           0.40059941753841    1.50800961104959   -1.85098895868861
H           1.77923869507426    1.97516763884710   -1.37192141831155
O           0.29629932746391   -2.51421758190869    1.65929731450144
H          -0.64776036078310   -2.43999152049396    1.82190788995843
H           0.36205868398858   -2.58656578303202    0.68681532140052
O          -0.83721710212655    3.16468327793459    0.04296063679663
H          -0.09235639241354    2.97639572315980   -0.58056075852850
H          -1.59395859279232    3.35548656988982   -0.51377284461702
N          -0.94949603456974    0.90618621214375    1.48401779883481
H          -0.92376425082054    1.79442054747124    0.91911526273304
H          -1.34806937977039    0.11707800550800    0.91071925951715
H           0.05338451864069    0.60393424100186    1.74240514278213
H          -1.50105476335156    1.04361265943425    2.32460470011821
