    26
        -50.46892698  Gyration_radius:  2.52647919873 Dipole_moment: 3.867
 S          -0.24474610908488    0.00765022035993   -1.57567252807496
O          -1.59574082511448    0.41733798730668   -1.21999365027818
O           0.73164297050266    1.00381070256735   -1.11576066315029
O           0.08350535132558   -1.31362553399915   -1.07380558897919
O          -0.13776966531647   -0.05399782128017   -3.13293199804499
H          -0.40527363531305    0.84493596921125   -3.41154482585961
O           2.52886696266263   -0.67303359585337    0.02282997048084
H           2.02346586693476    0.05720397924965   -0.37995003440611
H           2.22804284046480   -1.44331019457413   -0.47012301186539
O           1.92949392776980   -1.57392165524959    2.51639440466616
H           2.22762943506222   -1.19700463606761    1.66072681540922
H           2.65651151314339   -2.10454241826119    2.84257981765863
O          -0.95031373013852    2.44672500658879   -2.85329198115153
H          -0.16830930527827    2.69757200718835   -2.35106865337465
H          -1.51057377296893    1.96294215126359   -2.22428782927190
O          -3.01570930176968   -0.66475118079061    0.77950140273871
H          -2.57642232388737   -0.32065034410148   -0.02758021434436
H          -3.69837273601647   -0.02800755658473    0.99640287885898
O           0.40655758539125    1.55902302886829    1.43147885760847
H           1.30270845251114    1.61377120468471    1.77271117865396
H           0.49173664659838    1.50757382617864    0.45224946961061
N          -0.47142987515162   -0.96995583319343    1.49992904180411
H          -0.23117357792695   -1.24011397223207    0.51124031925078
H          -1.50044286829694   -1.05370049375533    1.58546561721359
H           0.09261464568233   -1.52360811551995    2.15517582190708
H          -0.19649849176481    0.04167728795947    1.60932536294306
