    26
        -50.46836244  Gyration_radius:  2.53775202372 Dipole_moment: 1.247
 S          -1.71191194125857    0.82345841958895   -0.25393357102900
O          -2.46343051833693    0.84300389449205    0.98434004569318
O          -0.54869514175641    1.70398751901871   -0.20741949891108
O          -1.34293980742628   -0.50777649852681   -0.69359747486775
O          -2.68302990465620    1.41151847804325   -1.35687349244708
H          -3.18235001481993    2.04334436527749   -0.85072470736473
O           1.15846426103558    1.63072708996644   -2.22802550040711
H           1.64315819825076    2.45033454907266   -2.11514065351775
H           0.47630604920007    1.62964177550870   -1.52069513082027
O           1.17319844453101    0.84877576636406    1.66123584096283
H           0.55188878850340    0.43779492055737    2.28483471752405
H           0.61030206376615    1.37316550526999    1.05975807830886
O           2.60995794781073   -0.61686521126939   -2.35992958465790
H           2.14776292331485    0.25223101949550   -2.37588008003331
H           2.38394977635750   -1.05075466940844   -3.18391065711060
O          -0.58922029614646   -2.67806873911535    1.12727911394261
H          -0.70878249014182   -2.05111793712620    1.85885754683829
H          -1.17194414683640   -2.34978057224512    0.43257991927939
O          -1.01645088559291   -0.43514722074467    2.72939376488334
H          -1.60479513742444    0.03703165033958    2.08827200649289
H          -1.46462067843440   -0.39885525284307    3.57623606110057
N           1.18100990647510   -1.09698711154801   -0.13785123520602
H           0.24193791836622   -0.81576962567585   -0.51655167154051
H           1.87529245890139   -1.10931432449821   -0.91372484711715
H           1.41993611714189   -0.37053589556026    0.59026968653769
H           1.01500610917649   -2.00404190441047    0.32120131344101
