    26
        -50.46907672  Gyration_radius:  2.47078172307 Dipole_moment: 2.484
 S          -1.26520657777295   -0.77334612324631   -1.64338718622065
O          -0.67600112653544   -0.02116467089227   -2.73428992505917
O          -0.35826302440228   -1.75422836808213   -1.08761553168601
O          -1.85349341455728    0.06922681022394   -0.60800580535162
O          -2.48944534234784   -1.56427857368332   -2.27470638160378
H          -2.12861025787590   -1.82977751254203   -3.11348138443977
O           1.48359908731552    0.87157793145832   -1.65881155082797
H           0.66390641110205    0.49044681695681   -2.07169667624467
H           2.11992481270235    0.94501935993762   -2.37251620955453
O           0.38433800408645    1.62749401881424    2.15303931355217
H           0.05916573849825    2.10005015051981    1.34936854457298
H           1.19316955073200    1.17672812366006    1.86144548500945
O          -0.45285610096554    2.37686420657114   -0.25681748377546
H          -1.10173661218375    1.67635776700220   -0.44662521393159
H           0.30293084646453    2.17332642715152   -0.82296156453584
O           0.70275323746759   -2.16358695077506    1.29818602471988
H           1.42337288109715   -1.51492765168180    1.23967136113409
H           0.35990618782933   -2.22130265402512    0.38180631134555
O           2.27351831184962    0.08115482820597    0.79971482696735
H           3.22853721623780    0.15233504348983    0.77001958280232
H           1.94792379120650    0.30883929288550   -0.09790124367166
N          -1.19008182589560   -0.44965595775440    1.89345313210086
H          -1.93207264129126   -0.64711433534869    2.55403413340126
H          -0.48910038063997   -1.24879398846929    1.80962573926331
H          -1.57154513641992   -0.28844658772644    0.92483054544822
H          -0.63463364570138    0.42720260734987    2.15362113658521
