    26
        -50.46947532  Gyration_radius:  2.50967913321 Dipole_moment: 3.373
 S          -1.62422668855044   -1.07899992551973   -0.94328723353337
O          -0.97138041182534   -0.29828895966510   -1.99017835362419
O          -0.97118065240982   -2.35247043625361   -0.73226286442079
O          -1.80677212648331   -0.32228484360632    0.28350104471421
O          -3.08302061016712   -1.39404161081373   -1.46932009389755
H          -2.92139877689921   -2.03501602503013   -2.15371669004579
O           1.10933921853501    2.32026127090329   -0.12324913200179
H           1.41422008489705    1.53439553682399   -0.60560013076405
H           0.17467329423075    2.43832377351770   -0.39907315667628
O           1.27325568260736    1.68418241586878    2.39075590473774
H           1.18124273079794    2.02779962425224    1.45487097372446
H           2.20243765369075    1.76931779158398    2.60840560255759
O           1.57991767558612   -0.04704892014703   -1.51799838311437
H           0.61910836569558   -0.15344051956101   -1.73149939128025
H           2.03348500688257    0.00755358362314   -2.36093471264100
O           1.45659636356265   -2.09730944337483    0.28594231726976
H           1.77686480907880   -1.41912569222362   -0.33419043826203
H           0.61789728496886   -2.41003788316251   -0.11737589495197
O          -1.46138581269320    2.11827620391035   -0.91992053143012
H          -1.90512515820723    1.71166218690599   -0.16762439430052
H          -1.31283817669336    1.37069960937784   -1.52406306571049
N           0.12514013704259   -0.67755061149689    2.03977721308765
H           0.58614418560191    0.25037932401155    2.25742079114963
H          -0.15977076477590   -1.14998317164169    2.89051490024477
H          -0.71274357536511   -0.50787697497089    1.42235979279584
H           0.77952025060956   -1.28937630306127    1.45674591647623
