    26
        -50.46423521  Gyration_radius:  2.48194551275 Dipole_moment: 3.864
 S          -0.73875358075103   -1.31662473187341   -1.06105352848752
O          -1.45723166246489   -0.04306508250761   -0.91696435946042
O           0.63074266358023   -1.17163758410919   -0.57194226480447
O          -1.44055866439639   -2.41793237318457   -0.46533768290289
O          -0.62298941620278   -1.58775057963498   -2.61044310479252
H          -0.07553597792293   -0.86367119185711   -2.92730323125198
O          -0.85526227843429    1.61638778561062    1.11057021525023
H          -1.25724513124718    1.08981602655167    0.39073658057463
H          -0.13912860372256    2.11413154479087    0.68547600226614
O           2.63146047911054    0.37884479236637    0.74474548849417
H           2.27211129715774    1.21564071314791    0.41873950881764
H           2.31595215765056   -0.28178587496354    0.11795297098388
O           0.04474503809751    1.18340967240865   -2.57850809348471
H          -0.49584246450473    1.71514869841355   -3.16696899445996
H          -0.58160432978896    0.77414206360206   -1.92354353920853
O          -1.58447204621172   -2.44719389361825    2.18361094941761
H          -2.51280396968989   -2.30844305232949    2.37907043152498
H          -1.53516649969043   -2.56867304486655    1.20834056071029
O           1.23849664794296    2.50921610682199   -0.51772878777529
H           0.92252247961984    2.01838367404587   -1.30467797996741
H           1.71783086548762    3.27447060025298   -0.83798332862551
N           0.31207388935155   -0.58031743320038    1.97016959577616
H          -0.36611951414010   -1.27801568395521    2.34383811695582
H           1.17694506494920   -0.50628766450261    2.50004817959248
H           0.54570014574641   -0.88745882231962    0.98446441980963
H          -0.14586659955782    0.36926533489639    1.84469188504779
