    26
        -50.45757817  Gyration_radius:  2.55681998268 Dipole_moment: 3.354
 S           0.56391435802946   -0.17652435537079    0.01094440614638
O           1.38125828517654   -1.21011866042669   -0.57696204077533
O          -0.20090463334155    0.56366953609750   -1.08961959816716
O          -0.48436374283189   -0.84068849404416    0.87935080841718
O           1.28683310681981    0.81324316578268    0.76767555209693
O          -0.61862813581259   -3.01046379923134   -0.85812477772260
H           0.24736657824355   -2.59174680704222   -0.71463133158621
H          -1.12377497959415   -2.82084628065294   -0.06299933438014
O           1.64154264402339   -1.24029594711510   -3.27673775061076
H           1.71541221785501   -1.31718425252248   -2.30811938123870
H           2.24152951599127   -0.54245374957185   -3.54282779226575
O           0.95941974594606    0.94658079026058    3.43108508961712
H           1.43520599207192    0.21650267505101    3.83005890688098
H           1.23501042417742    0.97800837504800    2.49392071948254
O          -0.98958944959931   -1.14777167760800   -2.72100699438460
H          -0.15770202252924   -1.24235701102879   -3.22717658325660
H          -1.03532068741421   -1.95723305128154   -2.15951006619681
H          -0.59132629243521   -0.12411935621304   -1.78807780050014
O          -1.47431561094962    0.81175625153243    2.38412841963268
H          -1.40641294112804    1.63721102306664    1.80389840198898
H          -0.99648809031528   -0.10768520643028    1.57368282476872
H          -0.72726480001045    0.89614487518460    3.02086569381619
N          -0.86544108941719    2.73763770671336    0.72633166318489
H          -1.34178507637428    2.69090449272965   -0.16546918180054
H           0.05578357720985    2.32624076752076    0.59284393178893
H          -0.74995888379801    3.71158896955279    0.97647621506863
