    26
        -50.46829834  Gyration_radius:  2.47233364037 Dipole_moment: 1.564
 S           0.55488578603644   -0.76600914077540   -1.87928006810225
O           1.24391832435062   -0.94946779427793   -0.60710570523317
O          -0.48629625503984   -1.74955712407152   -2.08082630957733
O           0.11452929691679    0.60959413084400   -2.04132082129016
O           1.62284252786709   -1.03873789807395   -3.02081635525629
H           1.34154178448309   -1.89931443935240   -3.31211732221987
O           0.82592546390240    2.57600697976535   -0.44510140825639
H           0.61557587050395    3.35759274698433   -0.95762224880134
H           0.64524815248001    1.81160949947507   -1.03649496958366
O           2.02156833699921    0.06335323612912    1.74520734665319
H           2.81128491914800    0.59531162362455    1.63567277811835
H           1.79841874543213   -0.26182593358928    0.84861771034904
O          -0.11175840843593    1.70506208748667    1.90907971869872
H           0.66960662298816    1.13656244227511    2.07214181386162
H           0.13090700840056    2.17780346350504    1.08612722975701
O          -2.32467522975958   -0.07492592109046   -1.26723236974768
H          -1.95157070988598   -0.91999665559393   -1.58766760377694
H          -1.66878877478118    0.55551910889315   -1.60885976536741
O           0.00338262603117   -2.14501624130985    1.38865134469320
H           0.66530253720178   -1.91640785634353    2.04907541871980
H           0.41425924944974   -1.88944347698844    0.53309457227916
N          -1.81089883816751   -0.19609501784938    1.32804443796566
H          -2.62068656199157   -0.26117905456526    1.93437429407648
H          -2.10716161658926   -0.11853734901287    0.31136232928436
H          -1.19988621170192    0.64931974504892    1.58529621032588
H          -1.19747464584206   -1.05122116111462    1.41769973242609
