    26
        -50.47125788  Gyration_radius:  2.42080355701 Dipole_moment: 3.022
 S          -0.79016283414786   -0.21753114841395   -1.24357003530330
O          -1.53991866076266   -0.08737688903503    0.00341694297599
O          -0.53327224017490    1.07577009159398   -1.84882011848307
O           0.37471119999527   -1.05252200770537   -1.10152590497698
O          -1.75880699829514   -0.98475927486563   -2.24740706029063
H          -2.31687949685712   -0.29862761699457   -2.60016335550880
O           2.14667160862228    0.99921244404312   -1.36922464234496
H           2.14476786282412    0.03636460651337   -1.34867059526693
H           1.26293764636037    1.21981313768544   -1.70572108042484
O           1.74098358090596    1.83575423568552    1.15220610330530
H           1.00809171488456    2.43414762667398    0.90303872455680
H           2.10887078084700    1.54557626565604    0.28871898681573
O           0.84631527086553   -2.49521156121362    1.12274272279149
H           0.95811085223975   -2.12048038249560    0.23111219426208
H          -0.04292931198720   -2.89246432430317    1.07610052071464
O          -1.72807277989120   -2.75283687605722    0.26962788295181
H          -1.74054092362694   -3.06175422332194   -0.63831056384800
H          -1.79241897243854   -1.78332852977143    0.21473688036724
O          -0.43423396149470    2.98520195299723    0.04063468244035
H          -0.35336760559419    3.80549782404428   -0.44961884637154
H          -0.57545936923807    2.28524328076582   -0.62644945728658
N           0.20449657707818   -0.09442916418821    2.00597207699218
H          -0.58903350951000    0.01256243194159    1.33144697572278
H           0.58631147288646   -1.07119344561810    1.83001510121858
H           0.92715560589239    0.66016658381029    1.74747810513935
H          -0.11432748938214    0.01720495257563    2.96223377982731
