    26
        -50.47220311  Gyration_radius:  2.41994776055 Dipole_moment: 2.792
 S          -0.28445956685059   -1.15396407050844   -1.24416647895562
O          -1.41071614604779   -1.96932164468278   -0.86249822982496
O          -0.60066876749168    0.25669687734527   -1.36661212012373
O           0.87543987736658   -1.38243730323466   -0.38745625534026
O           0.14323033674911   -1.61872978335417   -2.70080409002470
H          -0.08423245648947   -2.54158301814664   -2.67773930950128
O           2.27334703934022    0.93500485835198   -0.10509208344022
H           1.90302186527695    0.04287804768321   -0.21698386527579
H           2.21209020547863    1.33008518889942   -0.98875214522427
O           0.72245080998886    1.62948499528942    1.94335267368866
H           1.38283456880128    1.55123442565257    1.21387414058026
H          -0.11858998518935    1.87146168559003    1.51935878610209
O           1.49689479178947    1.17347879693708   -2.75422318900546
H           1.71521338999423    0.45940749128786   -3.35529415944464
H           0.65367950137320    0.91893132094574   -2.33965879868162
O          -2.30626332455454   -0.91939992790636    1.43072381817464
H          -2.15046277146893   -1.38107280004307    0.58124670268939
H          -2.37843907843038    0.02379037116185    1.21344572496467
O          -1.67657196521883    1.65463931711164    0.55976674069539
H          -1.27543162055136    1.17373282574834   -0.20074093403233
H          -2.14534913280660    2.40240786027923    0.18608348726232
N           0.22197076641649   -0.91223288428604    2.14196193355148
H           0.47713777887496    0.13644516814174    2.21784707065587
H          -0.83503286042905   -0.98698052379641    2.06380856672720
H           0.59285052174324   -1.23661408770511    1.21863362406948
H           0.59605622233937   -1.45734319676641    2.90991837971297
