    26
        -50.46923877  Gyration_radius:  2.51215653781 Dipole_moment: 5.534
 S           0.48412881395276   -0.30458311044129   -1.47156281493764
O          -0.95978372784782   -0.36455781605302   -1.26895065879631
O           0.92431082468972    1.03766426783593   -1.80916663379262
O           1.20241724127165   -0.85564962219156   -0.33068306099121
O           0.82467645516872   -1.24435046413965   -2.67743576874125
H           0.31229179045074   -0.82552198495692   -3.39379565971447
O           1.60781364081775    0.78030417640889    1.74022949088416
H           1.33432128657327    1.63059223707792    1.32898198770631
H           1.68140485073078    0.17099565753520    0.97747249049677
O           0.20944992497659   -2.66830237623272    1.27021147963506
H           0.52126428997230   -2.05744785942686    0.55799809882921
H           0.94861440599540   -3.25344284037593    1.44488491500950
O           0.79260882073966    2.77035337198330    0.17359444895037
H           1.38616575976500    3.48259479698252   -0.07098582138868
H           0.78331455463221    2.15606895069851   -0.59558732547470
O          -2.35324763962514    0.22760738370342    0.84734331952679
H          -1.80770031351243    0.08667637338277    0.03295583034157
H          -3.12314214641111   -0.33229485582564    0.73085378090004
O          -0.81139013804205    0.49280391737739   -3.81885342206450
H          -1.34432999799280    0.24853023629798   -3.04781143960380
H          -0.19554751007372    1.15578130327948   -3.47913691960801
N          -0.49699995546805   -0.46742963151716    2.60884157566598
H          -1.29693833707205   -0.12703455310890    2.00903841263050
H           0.36902285478234    0.13367782264387    2.36735044337850
H          -0.72321652756959   -0.43753939330680    3.59596483727058
H          -0.26950924092950   -1.43549598744752    2.27824842380072
