    26
        -50.47297948  Gyration_radius:  2.503653008 Dipole_moment: 2.734
 S          -0.90297696445583    0.44175972586779    0.44702954427736
O          -0.85351075158108    0.48382598623557   -1.01387511358318
O          -0.86379159244561   -0.94534295698827    0.92523233185075
O           0.17281413866900    1.22339084882031    1.03735171575639
O          -2.22137346484131    1.09261332087162    0.91256855778909
H          -2.98118299943373    0.61491330436869    0.47510522811077
O           2.21595874478108    2.11310447626981   -0.38405684338239
H           2.03149399139948    2.95683255042154   -0.79845760812915
H           1.40570285358008    1.87571128189223    0.12257107089439
O           2.54347334289814    0.49877051686588    2.07608526132405
H           3.06005940577958    1.08984013991307    1.51757087257781
H           1.63003912733039    0.83734747943327    2.00790612375350
O          -2.20762081580700   -1.77985613330319   -1.25528901657777
H          -1.86211323717126   -1.99533140589275   -0.37740655850706
H          -1.69091297887379   -0.98923246740864   -1.49977716554168
O          -4.08889378239747   -0.15151094244616   -0.39090421891820
H          -4.36207898704436    0.39231717936156   -1.13279729993120
H          -3.54833226735991   -0.89097365987448   -0.76905581746259
O           1.62288304201475   -0.19168219023917   -1.68570369282843
H           2.07463362906182    0.63326791649042   -1.42496369554968
H           0.66973712793859    0.03627031403634   -1.62639636205313
N           1.65178329075526   -1.50438451911059    0.57313234203782
H           1.75801989694877   -1.10387112189293   -0.41552894619655
H           1.96654247236972   -2.46578342370599    0.64228412949302
H           2.16252169780580   -0.86403806673030    1.23719682507883
H           0.61712507007976   -1.40795813325577    0.80017833571618
