    26
        -50.45757813  Gyration_radius:  2.55685941835 Dipole_moment: 3.352
 S           0.51464638448880   -0.13789503441983    0.25559233469113
O          -0.65194900459760    0.68779028469907    0.80463285340675
O          -0.05615651333809   -0.97993110028726   -0.86663654487786
O           1.48829824061150    0.78982585712679   -0.26032775211229
O           1.00448044076404   -1.02744366832884    1.28064443095225
O          -0.91465703848840   -2.90572292997327    0.94963518095192
H          -0.07285409016354   -2.45211472811938    1.12684673591619
H          -1.03000979609331   -2.85717682367816   -0.00310522946731
O           2.33625970575214    0.54774614688953   -2.79823557509939
H           2.93989749358526   -0.19524116126137   -2.84456056531007
H           2.18241485089224    0.72125404080656   -1.84878306253653
O           0.08034603730321   -0.68408346023754    3.80751461029991
H           0.56331026534005   -0.88267828104423    2.98475622074742
H           0.50524777994724    0.08122897249385    4.19692771826652
O          -0.31065363291804    0.38910616480673   -2.87563944691967
H           0.63715437714818    0.43878621378224   -3.13993090337094
H          -0.22346589886484   -0.38114477310172   -1.81261733541178
H          -0.50212622093269    1.28654077986435   -2.45079369954363
O          -2.05739630302024   -0.84273055842397    2.18113995610804
H          -1.85435978870066   -1.72040104900050    1.77989907141478
H          -1.52296520140806   -0.81353865117062    3.00014540369537
H          -1.30151610851568    0.07339971852817    1.36492349915338
N          -0.48120108667944    2.55355977961099   -1.42146502267650
H          -0.27356851431088    3.49153411811055   -1.74019496212442
H           0.29505465465325    2.22636212547630   -0.85043488539197
H          -1.29423102245227    2.59296801685699   -0.81993304075826
