    26
        -50.47097689  Gyration_radius:  2.49875065823 Dipole_moment: 4.579
 S          -0.07872887443897   -0.85696404133664   -0.95987285905029
O           0.57596743434512    0.29527973182707   -0.31979119708233
O           0.10272667704605   -2.05427763836399   -0.15478611935735
O          -1.47817538867793   -0.54193480010344   -1.20733273757185
O           0.60301794684710   -1.07471409764759   -2.33452959638660
H           1.43096355067367   -1.59936092396115   -2.12661006196539
O           3.07538856656268   -0.25310420785005    0.26807656591376
H           2.14264575119841    0.00624823561341    0.09186587340657
H           3.62048407301157    0.43651752129809   -0.11462940913330
O          -1.94449331578340    2.84997328406305    0.88961144312996
H          -1.27044597004276    3.33582387452487    1.36766941094274
H          -1.60046467514605    2.75170475333040   -0.03764451712173
O          -0.86519865424145    2.21777294420536   -1.42577308071430
H          -0.21063872136894    1.59608660146999   -1.04427872353411
H          -1.45455163687717    1.65048664124124   -1.93183248360634
O           2.54006823229518   -2.40815449976189   -1.28149441477169
H           2.96298609012137   -1.72916188059714   -0.71577380593972
H           1.84384791842050   -2.79002114199405   -0.72817435730120
O          -0.03117928646812   -0.96632447851403    2.22124341380801
H           0.04822446582969   -1.53192925981250    1.41728436395464
H           0.76461993408280   -0.42768028307530    2.21844234574692
N          -2.17727362437149    0.22041358577225    1.20084648211046
H          -3.06647047231967   -0.11359054220211    1.55808780298902
H          -2.02836735755886   -0.10470056084794    0.20027912877101
H          -2.13703356249894    1.27738890681372    1.19863747992396
H          -1.36791910064799   -0.18577773409419    1.75047906283958
