    26
        -50.46940934  Gyration_radius:  2.46104766685 Dipole_moment: 1.995
 S          -0.08172279496196   -0.58236607365871   -1.76846117465510
O          -1.38597923100750    0.02398239581475   -1.89229809099986
O           0.98518044970122    0.40991950398502   -1.69853271115054
O           0.01462455085216   -1.53808708094946   -0.67399288811557
O           0.14770443977372   -1.41717382283512   -3.09243906446817
H          -0.33755937660309   -0.90068279336389   -3.72674281183549
O           2.54694889512588   -0.60335246705945    0.22734729103199
H           2.11445431156758   -0.21166997335117   -0.55486655399757
H           2.16966097916225   -1.48374513845122    0.29756722175344
O           1.50511301407528    1.13303892227700    2.00458128588363
H           2.08301278013566    0.52147110839620    1.49948121948385
H           1.29769228224616    1.84853731383298    1.38080721302901
O           0.61197821849199    2.55222538402871   -0.21867519549975
H           1.04470744967957    3.29269730797325   -0.64615400584805
H           0.75778396996375    1.77444918895753   -0.80717365084123
O          -1.57865256088414   -2.83884352375345    1.22714152124406
H          -2.09158010754303   -3.60766283811090    0.97628609622960
H          -1.04096261542536   -2.60445271689931    0.45626385871858
O          -1.99459001928446    1.66100702488077    0.13015894442965
H          -1.24308247622659    2.26917546215705    0.04960559135156
H          -1.96540297138592    1.11650671108657   -0.68276604494382
N          -0.72187639275506   -0.16764046880133    1.53344350802170
H          -1.38588473479490    0.56405962680637    1.14829600204687
H          -0.40269407438715   -0.72619787404815    0.71277561823729
H           0.13225554322695    0.32144766098351    1.93977827779907
H          -1.18112951874665   -0.80664284990455    2.17856853309628
