    26
        -50.46427628  Gyration_radius:  2.605352484 Dipole_moment: 2.149
 S           0.74185469857766   -0.72690680074588   -1.15996382347287
O          -0.38138325683189   -0.08529690224507   -1.81889468527024
O           1.71868404411643    0.25070521153288   -0.68650472048632
O           0.28915352403398   -1.59196357360309   -0.07209546699424
O           1.45238496129785   -1.66402742715298   -2.18532263372600
H           1.91219595634301   -1.02944859354496   -2.77019285919926
O           0.63304842508914    2.20775737833090    0.78631302172674
H           1.12329982062875    1.54142892146608    0.26331453578691
H          -0.22634710623786    2.29059947429722    0.35336204020277
O           0.21565221422388    1.14933105832389    3.16095865160116
H           1.04803723275118    0.76881312783763    3.44543317940268
H           0.42641932123484    1.69016906780953    2.35505399258477
O           2.74166120467855    0.45747969670540   -3.08358566114076
H           3.70112369723101    0.44783315473209   -3.05584184880474
H           2.43934291147632    0.65382718670142   -2.17257567987627
O          -2.06919391292591   -2.81675376262901    0.69808155527565
H          -2.31301140094350   -3.65999910120226    0.31548604870572
H          -1.21308276637478   -2.57773559108545    0.30505987811807
O          -1.83973208065537    1.48775868285335   -0.40532186929982
H          -2.59396737414067    1.76530920087208   -0.92721760400069
H          -1.28705512537484    0.91562562569710   -1.00896326866966
N          -1.32423986416898   -0.29274701830632    1.55924886332196
H          -2.00541910844146   -0.99835642802271    1.83738918776223
H          -0.60082138127987   -0.79024274907847    0.96857878448609
H          -1.75330639966787    0.42276565253530    0.93769376366289
H          -0.83529822466992    0.18407449784698    2.36050661833346
