    26
        -50.47441757  Gyration_radius:  2.50812356099 Dipole_moment: 3.659
 S           0.04565263737035    0.80042316470301    0.77058889938612
O          -1.06742236751446   -0.11075310175465    0.99523018816603
O           1.30973236368489    0.05141705641582    0.65561872591845
O          -0.15344664064958    1.62126716601456   -0.41357195325720
O           0.16789660269947    1.74493385805629    1.98417906865085
H          -0.07271090562134    1.15542676984468    2.76192102531238
O          -0.49481705967686   -0.10549983361017    3.61888286040167
H          -1.03267555959427   -0.42042275782748    2.87615821363074
H           0.32182006204846   -0.64739777462515    3.59479828664261
O          -1.50027016798884   -1.53271827673402   -1.19426387607036
H          -1.90541414067166   -0.80692581520344   -1.70633401943444
H          -1.44762695494060   -1.16659030476363   -0.28428345437667
O           1.84676180407246   -1.22231936919941    2.91536654523870
H           1.70440775115381   -0.80577975931510    2.03813436346868
H           2.64864793233334   -0.83350334197344    3.26893799157653
O          -2.10313996677852    0.95961774935108   -2.08164564342640
H          -2.94246327032460    1.34179756608383   -1.82205796661437
H          -1.44981896279669    1.25981240328792   -1.40972123790644
O           0.71091005058951    1.22185924651132   -2.93176459814506
H          -0.16904358762951    1.23840137132102   -3.32361496801839
H           0.58742546332304    1.60757451032400   -2.04281652735593
N           1.02348331077269   -1.09700576007324   -1.67385248192064
H           1.65919939995418   -1.83288729327073   -1.96080836448809
H           0.01007100573411   -1.43953970451653   -1.56911261208709
H           1.28084742683402   -0.70157663639483   -0.72527142227390
H           1.02199377360027   -0.27961115264442   -2.34069702301313
