    26
        -50.47285701  Gyration_radius:  2.42617297532 Dipole_moment: 2.554
 S          -0.31493707080185   -0.54355306632121   -1.58192781794428
O          -0.68215409780150    0.82109503902763   -1.21204607625017
O           0.88765740371039   -0.96557271430902   -0.85409393135259
O          -1.39600041043665   -1.47978492885859   -1.39757397101866
O           0.06019721578354   -0.52419125137152   -3.09875178877212
H           0.68026668237471    0.22284441199466   -3.15853025151906
O           2.19950586638603    1.16333315226110    0.13084158696533
H           1.81539404613214    0.36034746480758   -0.26909727259872
H           2.24326098934263    1.80078137776851   -0.58656093441110
O           0.76699171762114    0.91200867413171    2.41082895520362
H           1.37631502978571    1.19169186294416    1.69724760838264
H          -0.13007646587806    1.20229250978595    2.11974224757440
O           1.22891239827654    1.85902364230136   -2.59146330267410
H           0.48374471846638    1.67005339651196   -1.97494416294632
H           0.94981251911238    2.59419785424826   -3.14094456713519
O          -2.22905094909908   -1.64049169923235    1.06028462710135
H          -3.01670407767019   -2.18605114617827    1.08950536404399
H          -1.97418480457751   -1.58302411295373    0.10290654901353
O          -1.62592927059450    1.14108666918823    1.28163897104710
H          -1.34420010593054    1.15881192817943    0.34771265138500
H          -2.07555238900368    0.29357412130761    1.39018192116994
N           0.42477599569608   -1.52611603660060    1.66827464887705
H          -0.59032064594087   -1.72051676539501    1.69634985821606
H           0.68112139567272   -1.42456723641095    0.64779250769642
H           0.61746112863764   -0.53672122159379    2.11019853098722
H           0.96369317074652   -2.26055194523540    2.11242802895757
