    26
        -50.47150074  Gyration_radius:  2.42619224835 Dipole_moment: 3.403
 S           0.28796167407213   -1.60346240331854    0.94203297509461
O           0.49373615691127   -1.59311217358540   -0.49884863535959
O           1.54289551077079   -1.44036807548629    1.65916049008172
O          -0.72878393016824   -0.66225572453296    1.36690668390119
O          -0.26674284922481   -3.03540661587334    1.31050931870460
H           0.44470012422003   -3.60629794781743    1.04056898431664
O           1.90335155010270    0.43371132205637   -1.58889747358547
H           1.15254319180718    1.02242012274987   -1.79157052028288
H           1.48840276741687   -0.42338643513681   -1.37000920127980
O          -0.18837765201072    1.94731290012483    1.07282255329345
H          -0.37182611630254    2.06050681389448    0.12097004823102
H          -0.53705280589341    1.06188750004172    1.29485191899870
O          -0.46721470678040    1.82506043667055   -1.64714075600845
H          -0.83907507288702    2.41153811196531   -2.30643727143636
H          -0.95499521903502    0.95221746356980   -1.74276032372137
O          -3.18306814312376   -0.85224226363944    0.34894526139596
H          -2.32409449748077   -0.88231828836958    0.81574703723652
H          -3.72435970104391   -0.21980844085500    0.82420999066194
O          -1.58114234105665   -0.50776342050385   -1.82759372960769
H          -0.85106607232082   -1.02809477386333   -1.44221250014600
H          -2.32550457900975   -0.63075719371791   -1.21077227792144
N           2.23953859483937    0.97392977345363    0.94403540231864
H           3.06102707205215    1.41686088144742    1.33934519684022
H           2.07777954521382    0.00886172861685    1.34529624520559
H           1.34572231344603    1.53056210566135    1.11472619096855
H           2.30564518548530    0.84040459644792   -0.11388561790041
