    26
        -50.47359335  Gyration_radius:  2.46642651083 Dipole_moment: 1.473
 S          -1.27814889262762   -0.22998214334799   -0.60645100248371
O          -0.82399233953392    0.97317183200345   -1.30199187259357
O          -0.30359291563345   -1.30537978966489   -0.74748905636250
O          -1.58447369947886    0.02328977945619    0.79093628168878
O          -2.60971871630115   -0.69074545822952   -1.27302530879345
H          -2.42333673711625   -0.64022924720005   -2.23192603907361
O           1.93433482688041    0.12356466690025   -0.82723295043398
H           1.75165411783362    0.83421688839079   -1.44585143287961
H           1.13448988488290   -0.44084936668414   -0.85456477843685
O           1.86253004673597    1.28151984531534    1.60611026904501
H           1.15702492313402    1.93189569609926    1.38936293010838
H           2.10872088457693    0.89534798120299    0.73874473753828
O          -1.65266291791812    0.07309211801471   -3.61598297537497
H          -2.15857783306525    0.72933413020170   -4.10056904647774
H          -1.16670429077855    0.55473226854818   -2.91594486597880
O           1.27843209355609   -2.69648077734486    0.86504030662856
H           2.13619458732018   -2.50271832546383    0.47817543306747
H           0.62478509984543   -2.39616668447497    0.19991620721070
O          -0.34889776359799    2.55978739035322    0.79726634455464
H          -0.48325914882227    2.10662499405344   -0.05739676371124
H          -1.07491105585265    2.24429002658120    1.34190985741302
N           0.38179586502761   -0.69754121352010    2.38915664041174
H           1.06228363423208    0.12472285239064    2.20774789609247
H           0.17386330257739   -0.82064201060448    3.37346154986554
H          -0.48854050710581   -0.46732075159229    1.83801512271033
H           0.79070755122910   -1.56753469138266    1.96258252626665
