    26
        -50.47339504  Gyration_radius:  2.4062053848 Dipole_moment: 3.100
 S          -0.08727074753706    0.68913490844841    1.14853564000682
O          -0.20572448059734    0.74538038248133   -0.31002558081570
O          -1.10380142048240   -0.16478134605657    1.73498125169210
O           1.25878314016046    0.27523163300515    1.52205966304647
O          -0.28438255421276    2.14623214648149    1.67017660922538
H          -1.21542358754513    2.32961722993766    1.43851295988500
O          -2.80289148515128    1.70121454332409    0.90076403100819
H          -3.02291481465436    1.41060173931751    0.00810825656712
H          -2.53439773190261    0.89275043250028    1.36674965201331
O          -2.38314849688708   -0.14569849396569   -1.45073954932247
H          -2.29049654523330   -0.03116053788236   -2.39780633221591
H          -1.57424567938656    0.24319405906605   -1.04642887781326
O           3.21778810858180    1.15801498300063   -0.08727603725632
H           2.56244216640458    0.88275487329422    0.58493576371286
H           3.36142734084112    2.09515174100799    0.05053502410420
O           1.72633406699220   -0.11769967421080   -1.94828470545196
H           2.47947468314795    0.35303935884328   -1.54388067544966
H           0.94830494652326    0.33621464423501   -1.57041356424287
O          -1.30515134348287   -2.20887596548443    0.06779003826065
H          -1.81347710395341   -1.74755914553398   -0.62146693862628
H          -1.35479026110566   -1.59884856924268    0.83302856231019
N           1.30232036180867   -1.88249980860860   -0.06904313000354
H           1.55438163172145   -1.33831585731759   -0.95867026893001
H           1.89738264814065   -2.69124781497291    0.07674345443843
H           1.40239126394958   -1.18464711461566    0.70347265154241
H           0.26708588386126   -2.14719837706595   -0.10235788769149
