    26
        -50.46850661  Gyration_radius:  2.49270139978 Dipole_moment: 1.150
 S          -0.88397437813248   -0.49268469308065   -1.62525595966181
O          -1.02778358938384    0.95998055533588   -1.54118367459652
O           0.49556967433677   -0.89455079311846   -1.40037030821130
O          -1.84447737867481   -1.18146037090378   -0.80617035313586
O          -1.18657801099956   -0.88499587342031   -3.13086553683849
H          -0.34653828377699   -0.72847791809941   -3.55027300478069
O           1.39155254295463    2.18373865502099    0.98355320796950
H           0.46255190939739    2.04988193422159    1.22029379210252
H           1.38861352631729    2.42384140307562    0.03129904339689
O          -0.07136123378138   -1.11167229525714    2.44798091116770
H          -0.60097866275105   -0.36538044156807    2.11911371705252
H          -0.41886682709983   -1.90680996266059    1.98691007432292
O           1.08199642052497    2.52326592439994   -1.66316008293489
H           0.75137807794022    3.36310507400059   -1.98647887149934
H           0.31674005889954    1.90523795352114   -1.68348291374849
O          -0.99927618014313   -3.03918318915413    0.84815022549365
H          -1.77690490909208   -3.56520228359820    1.04194579013688
H          -1.27728218759937   -2.39215352038875    0.16139085255852
O          -1.20895605854138    1.04573675068609    1.08055885195281
H          -1.16919170793471    0.98641400820094    0.10053040120079
H          -2.14228947202083    1.11069017414743    1.29104606649548
N           1.84776237582705   -0.40859112754318    0.81641878568427
H           1.84420026352744    0.64929299042629    0.91366133785255
H           1.38268190260994   -0.64222028842427   -0.09856849381967
H           2.78183567205481   -0.79777361995150    0.86008737139466
H           1.20957645552000   -0.79002902590180    1.58286875042156
