    26
        -50.46761813  Gyration_radius:  2.51362778781 Dipole_moment: 3.998
 S           0.48847206179129   -1.18484095099272   -1.33905694965209
O          -0.50008937080516   -1.42820865184665   -2.35843427027303
O           1.06740379435764    0.14689685103540   -1.35616234555931
O           0.00516624551121   -1.50942190303406    0.00540249340615
O           1.67021548227158   -2.19730293916457   -1.64295103186240
H           1.29635383364193   -2.69623773544685   -2.36101574438815
O           2.91351536250171    0.59328963654627    0.47157078318105
H           2.23817188800787    0.35715920423916   -0.20306912128458
H           3.47679848095932    1.24787618946238    0.05488994601529
O           1.73419125045779    1.14459295170115    2.79050035475212
H           2.25012396890268    1.00556424302685    1.96075802218708
H           2.04826269106426    0.48140719997202    3.40708395059368
O          -0.63297056636417    2.15800741488576   -0.74871007786585
H          -1.41458769684920    1.71974086819511   -1.15955469276500
H           0.12146657711574    1.68733911808891   -1.14254718274989
O          -2.60233716334217   -1.32696359382280    0.56158563887781
H          -3.11973099885671   -2.10548522157179    0.35144372708457
H          -1.67343575354731   -1.54786891907096    0.34614786762300
O          -2.37674630834606    0.37177518087728   -1.62777289835354
H          -1.77005150432091   -0.24667247683280   -2.07248201932229
H          -2.69861475901889   -0.10778150032465   -0.84723390274446
N          -0.51583411908284    0.69469396442959    1.40925138653256
H          -1.41374694250823    0.55076392880859    1.86223370948774
H          -0.23534229500758   -0.19484360297098    0.92794258962614
H          -0.59849774322585    1.43024205248212    0.62771753300998
H           0.24184358469156    0.95627866132786    2.08246222444320
