    26
        -50.46887039  Gyration_radius:  2.42985675811 Dipole_moment: 2.146
 S           0.10176036992195   -1.68189143886557   -0.82269078599732
O          -0.34590149139379   -0.90018982306474   -1.96050006304437
O           1.49306652940514   -1.39358888499727   -0.48634326927887
O          -0.77151086459808   -1.57292966936744    0.32524410806375
O           0.05764968078408   -3.19817895975182   -1.26699015461598
H           0.62363078722764   -3.20816689602030   -2.03170880115972
O           1.66934482965802    1.02580847359448   -1.55762687164139
H           1.71966944917933    0.13497335322152   -1.15774546440825
H           1.11987172234991    0.90023022907665   -2.33606566884686
O           2.57326949711981   -0.42095125738192    1.76059452524367
H           3.25053156142421    0.17574518109536    1.43533028078063
H           2.26421617888120   -0.92153805000497    0.97730283472418
O           0.01456975243776    2.34438340991792    0.08647923005726
H          -0.81150140350598    2.12044064888403   -0.37442929824562
H           0.72939707233587    2.02397131480302   -0.50789009479287
O          -2.72532468063890    0.15656101872276    1.42528452094727
H          -2.44668354207870   -0.74130689569363    1.21774294257401
H          -2.65596902459572    0.62741057249008    0.58361363253575
O          -1.99601188617399    1.00536122703251   -1.19645933970903
H          -2.63610709678934    1.12091741886455   -1.90020942292978
H          -1.41290108112149    0.26059948769484   -1.47375008619619
N           0.03976792367636    0.43498396604584    1.88226552452602
H           0.01346748966014    1.29410063275011    1.24025420759413
H          -0.33276480430010   -0.37478328953231    1.32626358051424
H           1.02812818102934    0.20965529838764    2.12470155782947
H          -0.56366513988949    0.57838293209664    2.68733238548582
