    26
        -50.47132794  Gyration_radius:  2.39801209017 Dipole_moment: 2.037
 S          -1.08281525649809    1.04493376632776   -0.82630169677118
O          -0.35995641378175    0.02262315855641   -1.56358842473200
O          -2.47576699331924    0.72959926682411   -0.60969303897619
O          -0.39427536395490    1.40816679398288    0.40244261659087
O          -1.08867308263998    2.34643711700098   -1.74785211023636
H          -1.97134164910511    2.66930142116651   -1.60106208368772
O          -2.17343176691853   -1.85782772302613   -0.41570202942746
H          -1.70269328671892   -1.96480653770659   -1.24759308183568
H          -2.44648707567795   -0.91244502325151   -0.41865551344405
O          -0.10940056282500    0.18281923367637    2.72776680563993
H          -0.38227192695908    0.72320439044395    1.95612978928521
H           0.80511196791419    0.43218898705882    2.88963253734297
O           1.56727241403963   -1.46789061660072   -0.35752330790268
H           0.94788071849911   -1.05929620023835   -0.98927101858992
H           2.02094677260676   -0.68941235528316    0.04929030101345
O           2.23753232094216    0.90918746551198    0.60934363774667
H           2.57507162809378    1.30021585989322   -0.20877691544732
H           1.29702335873543    1.17672650279905    0.60429269468431
O           1.67891146054393    1.77049332879140   -1.95499105273298
H           0.97662094999022    1.10089271028059   -1.94164651709065
H           1.23980629259637    2.59198628794332   -2.18077896118407
N          -0.23627414662123   -2.11714900368510    1.39002668092468
H          -0.17433587103169   -2.99607785902913    1.89101963210229
H          -0.24310190861060   -1.29326711977436    2.04709369210838
H           0.59427712194851   -1.96935363839108    0.71386662545836
H          -1.09962972125435   -2.08125018328171    0.78253073915514
