    26
        -50.47029298  Gyration_radius:  2.48025672359 Dipole_moment: 3.132
 S           1.35498631394683    1.38653416082154    0.65985732184622
O           1.04414452117874    1.84716709175683   -0.69068782517028
O           0.12736132339666    1.03958784735239    1.37338925094100
O           2.34584597548091    0.34575162996888    0.71185425266995
O           1.96696105600887    2.63633706374208    1.41426394248453
H           1.29978368301348    3.30881942578599    1.31852203284473
O           2.40134028018123   -0.36777364352410   -1.84537639331995
H           2.22362896552202    0.50218965289238   -2.21208721437240
H           2.54608502620131   -0.19835141562374   -0.89352415926242
O           0.10191643340382   -1.71167380230259   -1.57547877780674
H           0.99903008740067   -1.38438109294462   -1.81123465805126
H           0.13998635530450   -1.87865064637487   -0.61550711961340
O          -2.35843395149455   -1.89617346584800    1.49038127457276
H          -1.39858486993492   -1.97318136358572    1.36952047122338
H          -2.53693061847763   -2.11745618238824    2.40554898233077
O           0.37084087755017   -1.57242536320044    1.15542541645052
H           1.30875903059032   -1.73381232690008    1.28993330298854
H           0.27314694288185   -0.60413846721219    1.29659493663865
O          -2.46619979536530    0.69864143872153    0.69731514760057
H          -2.61913588616195   -0.22953328268908    0.96818443993031
H          -1.63594205763209    0.95350671745263    1.13820727349564
N          -1.11700184448504    0.59818099594119   -1.55422707656680
H          -1.53902364133673    0.92898088947960   -2.41434226791291
H          -1.80336882334391    0.63343119661770   -0.73850732507425
H          -0.74036204221062   -0.40100598731962   -1.65671841123966
H          -0.28883333160418    1.18942893937873   -1.28130680764552
