    26
        -50.47395394  Gyration_radius:  2.40826437748 Dipole_moment: 3.050
 S           0.44966847573764    1.05875447186694   -1.33355481128978
O           1.04451531511773    1.25157589880970   -0.01751606424766
O           0.02926710423252   -0.33631528766201   -1.51266214050502
O          -0.63372615017479    1.98199873407616   -1.58579196127734
O           1.56586497841855    1.32853941717206   -2.40166558999024
H           2.17786314604263    0.58344369829678   -2.29743212589328
O           2.40738065088988   -1.22781328815790   -1.91638718138966
H           2.48245813450440   -1.81152984679195   -2.67352837407853
H           1.44267136900369   -1.07832825956424   -1.76787890129751
O          -0.28879965067588   -1.46921921384082    2.08368979647009
H          -0.15418608789974   -2.06135730557634    2.82464640321507
H           0.59214940379301   -1.38401729665972    1.63542261945751
O           2.03467217339141   -1.01492309129100    0.92124543919020
H           1.77911943857113   -0.11233883077682    0.63486227323362
H           2.38812232820320   -1.42892289012895    0.12637028522859
O          -0.53902385365235    1.28949387656236    2.14679446885046
H          -0.48616563665079    0.33461406658538    2.33382944334682
H           0.16194607797625    1.44452851473071    1.48243588003696
O          -2.00849302732147   -1.25830721889144   -0.06758954939703
H          -1.52432350413387   -1.49597865889729    0.74231924391542
H          -1.30611562395775   -1.06719674200679   -0.72269021107125
N          -2.36232234332886    1.31376352462747    0.27488757175736
H          -3.26255129361974    1.77475475101234    0.34185314630399
H          -1.76220866770946    1.43678980098923    1.14974324501338
H          -2.44147459477677    0.26015404302104    0.12596182937101
H          -1.78630815197382    1.68783715249112   -0.52736475494357
