    26
        -50.46701371  Gyration_radius:  2.61743408948 Dipole_moment: 1.906
 S           0.72704132564598   -0.69387115503456   -1.65092481470715
O          -0.67234784795077   -0.90614999929757   -2.00921567136655
O           0.94127187965975    0.65574777266021   -1.15306362612098
O           1.23354601291199   -1.71517801185595   -0.76586165753122
O           1.56096779908194   -0.80502868686659   -2.99380638500760
H           1.32626605483539   -0.01453723236076   -3.47110247472966
O           2.88384611038546   -1.04687729735119    1.18108993460701
H           3.28175159479668   -1.88906091590592    1.40828097455114
H           2.29881908302487   -1.23004119559418    0.41205764864738
O           1.55291273413878    0.42408503208924    2.96464338921486
H           2.08087458317677   -0.15934778592306    2.37121372778916
H           2.09361733423526    1.20122895359409    3.11345171244490
O          -2.28263704946920    2.38631171635614    0.50150190674320
H          -2.43037060306047    1.91851701123357   -0.35280656174472
H          -1.96973544761318    3.26140559560736    0.26758710689503
O          -1.29678763157307   -1.89613686012432    0.37666221609911
H          -0.54542481270903   -2.48331619697514    0.50121565943084
H          -1.24219910796067   -1.64163275307560   -0.56580784573885
O          -2.47846751156580    1.02502992897251   -1.79661905607787
H          -3.29049602102366    0.52463465801129   -1.89719982233077
H          -1.75413288894220    0.37134976738984   -1.90615240329195
N          -0.40966148776339    0.55042586056651    1.11591922428821
H          -1.14475432525586    1.28985836084739    1.11399556487381
H          -0.85498169330568   -0.39054993326377    1.02475441283459
H           0.18084280729766    0.68420644227749    0.25622584789194
H           0.21023908895484    0.57892691401043    1.95396098234857
