    26
        -50.46986238  Gyration_radius:  2.4345660068 Dipole_moment: 1.028
 S          -1.53767239001377    0.29089503092477    0.73311537980911
O          -1.86319278569639    0.16633682205980   -0.67969804342744
O          -1.13035976097121   -0.98058724641394    1.31186438868152
O          -0.60494017989423    1.36353660910754    1.00760656061659
O          -2.88045013584623    0.70018717886363    1.46292869490797
H          -3.44001160056061   -0.03619405282142    1.24501396166202
O          -1.24195105840274   -2.40855037430446   -0.93009477877344
H          -1.19916578669947   -2.29154958713234    0.03455253035776
H          -1.65717429410174   -1.57509296385993   -1.21107753017879
O           1.77504867777003    1.14579027694415    2.24833482490394
H           0.91784369296773    1.32293835379917    1.81537852862062
H           1.64897986785885    1.32594861303468    3.18104339645115
O           0.24219862624200    0.68726992771798   -2.25951672069198
H           0.57554195209290    1.53262648409971   -1.89781774100153
H          -0.61622846636868    0.55613922643529   -1.80990268638012
O           1.52921432052015   -1.32992727541661    1.24111504781004
H           0.56576622674348   -1.29583622292192    1.40494902981003
H           1.86418217508151   -0.48593919705614    1.60452122377074
O           0.64598519464240    2.90908759014875   -0.80819381401977
H           0.21667975075239    2.41780698342711   -0.08160235224649
H           0.12336117880457    3.70064378268641   -0.94479070053011
N           1.24450334694432   -1.55371463769550   -1.35115619498707
H           1.00089639149515   -0.60302474843633   -1.77200636440088
H           0.33549991299688   -2.08823638205835   -1.32526995296569
H           1.95438224036976   -2.03580835891202   -1.89000350057332
H           1.53106289327511   -1.43474585222362   -0.32929320723369
