    26
        -50.46932923  Gyration_radius:  2.4411005328 Dipole_moment: 6.734
 S          -0.21071621996857   -0.11644147604251   -1.90066239908539
O           0.70614803431885   -1.04903075949444   -1.24133809449669
O          -1.55677581236119   -0.65939423609818   -1.92323680269928
O          -0.12903196881910    1.21594486713490   -1.35230950862557
O           0.26471432368149   -0.01684627361955   -3.39958823001919
H           0.06648202978453   -0.89142451116417   -3.71435234506961
O           2.54252681070480    0.12239491823607    0.45078836435727
H           2.03231145984800   -0.33435289884221   -0.23757439854063
H           2.56825560078744    1.05711051205073    0.16875125474398
O           0.81963905346249   -0.06750964193929    2.42350818054306
H           1.60433664773475    0.04801394622026    1.82407246691278
H           0.19007823319204    0.63963775426350    2.15788658267922
O           1.98329539892636    2.62687828312325   -0.44970495860009
H           1.57971630763893    3.19588193223019    0.20905826734309
H           1.24459311428902    2.21170143138816   -0.93071144533564
O          -2.70250913110855   -0.76393753607341    0.39497141140855
H          -2.32927351408682   -0.68268985988631   -0.52208079474519
H          -3.64317681001230   -0.91194604071005    0.28739517459967
O          -1.03369018423817    1.40262484277422    1.17699093484489
H          -0.70654119591452    1.45717376831190    0.26016159093633
H          -1.81025209712270    0.83105812912366    1.12860211144876
N          -0.30757574261212   -1.89961392389413    1.04431852106512
H           0.11542029114590   -1.68614468121059    0.10350679402673
H          -1.31287497064449   -1.66791712967678    0.98821728997204
H          -0.15729730936253   -2.86774350584085    1.30330364452927
H           0.18219766073637   -1.19342789036425    1.75002638780552
