    26
        -50.46944585  Gyration_radius:  2.48535877627 Dipole_moment: 3.863
 S          -0.38507398999346   -0.88047007313181   -1.73194469530619
O          -1.67046832754915   -0.56961439144249   -1.14710730737682
O           0.03125757335434   -0.03393372154740   -2.81986516920543
O           0.64656556942635   -0.99913037394504   -0.69228342203441
O          -0.52597245884213   -2.34058578751756   -2.35391268116499
H          -0.09429660482172   -2.24216071848389   -3.19619768199006
O           2.52610063277528    0.73250814762994   -0.09441992223968
H           1.87533142010680    0.04151330211690   -0.36384196268850
H           3.37101127190531    0.46237585521196   -0.45672691838752
O           1.87429545708288    0.98410201678437    2.54328388741062
H           1.81741771783544    1.92225020930688    2.73258787861344
H           2.23495748655429    0.90972654058593    1.63683963450395
O           0.26808042292769    2.08801689317331   -1.17808852479823
H           1.14729285727615    1.91423275716865   -0.81877111348978
H           0.14307994486022    1.44191788479094   -1.89504567981505
O          -2.00636413068783   -2.25186117134534    0.91527186914402
H          -2.27480653471340   -3.11306767814142    0.59453444246056
H          -1.96856542324256   -1.67297206951522    0.12855873185420
O          -1.81358907953938    1.63864873140037    0.44483983112470
H          -1.10354123052288    2.04920038994611   -0.09321496250646
H          -2.19555878905582    0.98141793953338   -0.15702055161652
N          -0.37754284817784   -0.21537306449739    1.63729434407239
H          -1.00585369464927    0.58458360886946    1.31229613996883
H          -0.94542091756101   -0.95772093535818    2.04778841391916
H           0.04430971451498   -0.61032507156586    0.76107856816128
H           0.38735397074019    0.13672076999369    2.24406684139854
