    26
        -50.46891537  Gyration_radius:  2.43216065011 Dipole_moment: 1.428
 S           0.34585387593037   -1.18854429230641   -1.37004376817324
O           0.68097693008625    0.05490965581430   -2.03866384119536
O           1.16011304658622   -1.39206862956472   -0.17877203416700
O          -1.06995708291784   -1.33075348466877   -1.09438184776778
O           0.71446386190992   -2.35808038103790   -2.36742896090561
H           1.65333955069311   -2.25360922299054   -2.48081369354114
O          -0.73345225161859    2.01623193575627    0.85844256702564
H          -1.28772406832134    1.82656103673791    0.06793858804943
H           0.15204340312727    2.20837002831248    0.50275853215514
O           2.46840389754645    0.23360281823762    1.74269012281219
H           2.34392633652567    0.99872767957591    1.16639489181644
H           2.39259289782235   -0.52450541420836    1.15271063587245
O           1.66307727340584    1.89179558326288   -0.43711503265021
H           1.33403725085189    1.18200459109294   -1.03848879505224
H           2.15094973776881    2.50630238409448   -0.98719731407628
O          -2.47804917029528   -1.76465619100464    1.14409674182272
H          -3.31934151665511   -1.32949313494638    0.99247999397561
H          -2.02929704687245   -1.78579858747082    0.27511194393486
O          -1.84169642730464    1.18900887354948   -1.43406255950180
H          -1.21525987663966    1.45713371328340   -2.11180999044734
H          -1.69712428593310    0.22729783821707   -1.34639921220361
N          -0.28348576404601   -0.37938034665995    1.82388449820669
H          -1.17068811488337   -0.92279760880646    1.86681938851244
H           0.31371977628822   -0.81269413301996    1.07586198417736
H          -0.49181966874366    0.63030182324538    1.52282524078088
H           0.24439744568744   -0.37986653449538    2.69316192053968
