    26
        -50.46959491  Gyration_radius:  2.46626151804 Dipole_moment: 1.527
 S          -0.25741321276257    2.10867961642369    0.36711629908724
O          -0.87311458699879    1.92539998459681   -0.94273403284652
O          -0.94404493680660    1.35879601963872    1.39620298930209
O           1.17409645047764    1.86887095993930    0.33514230304418
O          -0.43419501398530    3.64014780120760    0.73423178629266
H          -1.36392621159336    3.67909847279841    0.93139373195812
O          -0.48824626443023   -1.08129808891066    2.33296532941846
H          -0.82936642691530   -1.61504498110935    1.59265452775482
H          -0.80646128462416   -0.17360505041199    2.14966146903651
O           1.39975691934940   -1.81550400886778   -0.95268275831229
H           0.51265272435911   -2.14177202326906   -0.72342134060087
H           1.25402009875383   -1.04189647145204   -1.54040755139597
O          -2.16903715968501   -0.29743456391011   -1.50924950285533
H          -1.80919310383060    0.56059368078301   -1.19479005153700
H          -1.86191394080745   -0.37424824917693   -2.41603723819008
O          -1.17641465412368   -2.26006931423671   -0.06493922997344
H          -1.58951424314628   -1.50597455709598   -0.56126493272004
H          -1.79144767374759   -2.99183989193831   -0.12833825368392
O           0.98977019682902    0.52831290842602   -2.21690945417746
H           0.28362476094684    1.06414488745715   -1.79916122339322
H           1.79175860518087    1.03299141730578   -2.06660686408670
N           1.83054251027679   -0.49701624546661    1.27398968243213
H           0.98535403779335   -0.79332615128292    1.85827095689025
H           1.65163187107006    0.49656321290040    0.96750382684121
H           2.70186257550423   -0.57575453106705    1.78471763672935
H           1.81921796291595   -1.09881484328234    0.39269192498592
