    26
        -50.46657642  Gyration_radius:  2.46623091146 Dipole_moment: 3.318
 S           0.34782547205753   -1.50881061149768   -1.57827492630980
O          -1.07506787457976   -1.72570000267471   -1.76850538759465
O           0.67315715493552   -0.08367261672504   -1.62327361904305
O           0.89516022361894   -2.16376432190298   -0.41488490872563
O           1.06271641608735   -2.16700709391889   -2.83072629083166
H           0.52382262857837   -1.87610024060637   -3.55949284044139
O           2.26859110787994    1.17158976797975    0.13942024959687
H           2.20326876619906    0.53183490877768    0.85927614535602
H           1.78370230267606    0.75714654088674   -0.60150214397633
O           1.01136272927630   -0.76059577214281    1.75472128349694
H           1.00029521208797   -1.39585041344284    2.47206431771057
H           0.98763481279243   -1.30024006051020    0.92020450255446
O           0.68354571394621    3.10436822271444    0.94042303871330
H           0.45524208797019    3.60566150448905    0.15572529502722
H           1.40077762685712    2.47371395726907    0.65657124512130
O          -1.68351799150414   -1.56890426350673    0.82636481398261
H          -1.55071521952817   -2.45087812781815    1.17581251238179
H          -1.51902629985109   -1.65709025474928   -0.13125086812535
O          -1.70507959950502    0.89658849648950   -1.18702852483894
H          -0.78812369517522    0.66763887580646   -1.46221869954153
H          -2.20694937002337    0.10514832331229   -1.40947133351291
N          -0.96718958107808    1.07402968586887    1.35553867455587
H          -1.38847006724982    0.94169533567279    0.39086253091661
H          -1.69742893830415    1.09802205493645    2.05785936929318
H          -0.32249200897892    0.26967344632746    1.53703551037436
H          -0.39304159916830    1.96150267895245    1.32475006386873
