    26
        -50.47295820  Gyration_radius:  2.48772073101 Dipole_moment: 3.784
 S          -1.25857168118923   -1.12450138371420   -1.12976315215853
O          -1.56291878285598   -0.78804989865657    0.25961552638982
O          -1.84051404927699   -0.16299573486896   -2.04716139808908
O           0.15104316782504   -1.36197535865339   -1.34474051538991
O          -1.98336360740227   -2.50408687902551   -1.41865054748865
H          -2.89836076029022   -2.25405721856027   -1.49602525393981
O          -0.71314792500669    2.15102748482382   -1.80310490521828
H          -1.04271602485849    2.72970394158193   -2.49255557522333
H          -1.16654551910989    1.27769719638795   -1.94178444356520
O           1.73112892718871   -1.03918914930960    2.60544024467900
H           1.24297548929291   -1.68670163923239    2.02778821814467
H           1.31053506860320   -1.09560581751118    3.46482504839121
O           1.65900604817730    0.81588189252955   -1.38223140198838
H           0.97431712512671    1.43872957827665   -1.68085527154583
H           1.23612942847485   -0.06530814860170   -1.46316686256838
O          -1.06398415376909    1.73046733325120    0.90068918130861
H          -1.37432954851321    0.80877604827355    0.76177727482044
H          -1.05463966608863    2.11954296480625    0.01031348988079
O           0.22928938941646   -2.54610504648006    1.06936049436961
H          -0.55300484992843   -1.96877204812296    0.98104482623861
H           0.58455975691257   -2.54916880756285    0.17073995375117
N           1.49713000764087    1.22524838402886    1.20790552707009
H           0.46370250066211    1.49158481842123    1.22297311331703
H           1.63904551223245    0.34883861565433    1.77433987551773
H           1.71555142891028    1.03243348604619    0.18005654411027
H           2.07768272781849    1.97658538625566    1.56316998918389
