    26
        -50.46618029  Gyration_radius:  2.47896101859 Dipole_moment: 3.720
 S          -0.90705284018274   -0.08982574220622   -1.40439102011088
O          -1.58500928510164    1.14824504599583   -1.66799815268940
O           0.50878713748124    0.05244294479479   -1.11003415885071
O          -1.56194314604107   -0.92314633026398   -0.39697310372074
O          -0.99662847096642   -0.92513519740116   -2.76410661018556
H          -1.43820805006751   -0.30673468766324   -3.33657783448851
O           1.82376133399875   -1.69332695523659    0.41763663233104
H           1.59366405475246   -0.96744009901613   -0.19492509813265
H           1.41719125075984   -2.46852871408674   -0.01189225651103
O          -0.21005259407515    1.56798376037437    2.58600154578595
H          -0.33246696519011    2.02999523864636    1.70759471454087
H          -0.86900961514172    1.94989954782098    3.16742349193828
O           1.84424048507124    2.37243965059413   -0.84537221918396
H           1.41051602429848    1.52898473000929   -1.07391857915343
H           2.55387737524345    2.15142596328872   -0.23923836146822
O          -0.03133287955387   -3.03561605578770   -1.03896839080652
H          -0.69221655218175   -2.35280944726999   -0.82762638258712
H           0.05864321429714   -3.00863051033899   -1.99340389045871
O          -0.60847385324342    2.73185506484168    0.29076416608659
H           0.27458751320681    2.88058846586991   -0.09668114814740
H          -1.09227402590215    2.23556116648200   -0.39312045939466
N          -0.23626657883833   -0.98482733796835    1.87670645809568
H           0.70567900398599   -1.29030722592052    1.47357676844751
H          -0.88149596246087   -0.97031797233651    1.04335791641297
H          -0.56702829027219   -1.63467050960870    2.58149971577738
H          -0.18148825389054    0.00189520639643    2.25066624647235
