    26
        -50.47398693  Gyration_radius:  2.43758462024 Dipole_moment: 2.209
 S           0.50170796284916    0.07189815476633    1.85670602205209
O           1.52489641688507   -0.31081057645772    0.88491332657414
O           0.49560907602158    1.49121267119620    2.12411609786901
O          -0.78946319814481   -0.47639736959323    1.49057117584145
O           0.90499231663037   -0.62424413911504    3.21932340977192
H           1.46853897997119    0.04500003925880    3.59038892319372
O          -0.04423694098643   -0.13008366659367   -2.57158278984257
H          -0.84633919539703    0.15324242612247   -2.07609798626631
H           0.64092354047048    0.52483705972759   -2.29925164728124
O          -0.40906511342079    2.90157106059084    0.10890267998795
H          -0.10141437892959    2.41630807966093    0.91034675239606
H          -0.50114627425413    3.81943588101596    0.36823381034297
O          -1.63345334181288   -2.66756920869510    0.25576640694004
H          -1.41039486173935   -1.96331080925613    0.89850147073966
H          -2.40475067455312   -2.34495701979905   -0.21720084665007
O           1.58293131067386    1.46916428911338   -1.20357328970735
H           0.96509779702869    2.15127595827842   -0.89736826455557
H           1.72944280949902    0.89343155956920   -0.43455049156505
O          -1.82345500479728    0.65903339322296   -0.73781399281190
H          -1.56705921416762    1.58557792352275   -0.62335517973436
H          -1.54480775667537    0.23037729409255    0.09122617529030
N           0.66680699847093   -2.01040842093419   -0.95409440856924
H           1.32619745077188   -2.70778148513428   -1.27943679703888
H           0.38923853558481   -1.30836540662158   -1.74289203076165
H          -0.20697714709408   -2.44599613429586   -0.57269400733100
H           1.08617992709798   -1.42244156369893   -0.18908453882329
