    26
        -50.46996111  Gyration_radius:  2.45956589435 Dipole_moment: 1.653
 S           0.66896226977070   -0.41143609958508   -1.72069345215032
O           1.25434727053096    0.78532644918754   -1.14019666256774
O           1.05671141596982   -1.61087694967960   -0.99488781612458
O          -0.76623835860563   -0.29045191626930   -1.88988646414384
O           1.28333167050953   -0.58194409400021   -3.16660456614473
H           2.05519281344400   -1.09572078290780   -2.95683186709387
O          -2.43732486999902    1.53236904768884   -0.86749585704904
H          -2.72830791461547    2.19067306934555   -1.49969991229072
H          -1.82111159165866    0.94093479553141   -1.34745282329766
O           2.84945352436615    0.41373801890540    0.96380292903049
H           2.30767636963900    0.47912123884559    0.14970200799506
H           3.35340123063409    1.22858548598075    1.00690003418705
O           0.66163399486871    0.37201318989959    2.53462959192559
H           1.57390525501308    0.35755045701587    2.17593456059979
H           0.22899514530379    1.10336991095734    2.03502908838383
O          -2.48852047703748   -1.23653274139621   -0.03696264042692
H          -2.92413746814102   -0.38878027609853    0.10669647032878
H          -1.95171024869769   -1.09681784473864   -0.84047282244608
O          -0.24860761316349    2.08219228500329    0.72037450294550
H           0.33614266948386    1.75152149645062    0.01551391420562
H          -1.14445884800334    2.01726662876999    0.35356982529202
N          -0.22922777162067   -1.72652732135426    1.29780624420732
H          -1.21308549153166   -1.58176087394959    0.96178362425654
H           0.36775895878777   -1.75750451718250    0.42879708190603
H           0.10038188771950   -0.88222694815156    1.89467434504112
H          -0.14516383296743   -2.59408169826739    1.81597067343173
