    26
        -50.47033162  Gyration_radius:  2.48247240847 Dipole_moment: 2.334
 S          -0.31671838066726   -1.36691863767243   -1.52014410956312
O          -0.53289353915821    0.07232938459468   -1.50926273795576
O           1.01603507268061   -1.71802652425384   -1.04436762811356
O          -1.35860879260437   -2.10358663778007   -0.84264935299052
O          -0.37612036682660   -1.78893910261547   -3.04570551881071
H          -0.45651826817243   -2.73591446974259   -2.99659718228698
O          -0.29944222839783    2.93416787697752    0.85550313738452
H          -1.04836422379043    2.32030855462978    0.75653699170311
H          -0.11668690175026    3.27625851289624   -0.02215864349764
O           1.88881487105113    1.41399078449195    1.26168493929796
H           1.13473120109640    2.03901280944735    1.29997211022326
H           2.10542405447123    1.34971315079271    0.30497534419967
O           2.00553090610234    0.89232700200521   -1.37030317512208
H           1.05249610288284    0.73215905362543   -1.50713847042049
H           2.40247865487888    0.02309999553895   -1.47609634053362
O          -1.61082880596326   -1.20149225545090    1.64336046373683
H          -1.65339351271069   -1.69238634907261    0.79585957225187
H          -1.96986572515632   -0.32476843218395    1.42729984226942
O          -2.21485121095123    1.06444039917142    0.22229128954675
H          -1.61786026090188    0.68349368534411   -0.46697745718114
H          -3.06310043000523    1.20237967259119   -0.20178251605072
N           1.01564155395178   -1.02401775182061    1.50837217996046
H          -0.02173393256010   -1.06324615952809    1.73362957951713
H           1.54724531525411   -1.59825033203442    2.15348178077599
H           1.11343759336234   -1.38163055871535    0.52448537524073
H           1.37515126387042   -0.00450367129421    1.51573053648844
