    26
        -50.46936531  Gyration_radius:  2.43001849212 Dipole_moment: 1.259
 S           1.19352242369034   -1.17636015956245   -0.83343175423357
O           1.04416375791090   -1.37327344879456    0.60286615241805
O          -0.06421234860237   -1.45365957742604   -1.52051519085204
O           1.75875550281708    0.10412747194918   -1.17674393573301
O           2.22099188352959   -2.26951079861002   -1.32735478585767
H           1.79797354386109   -3.08124406015735   -1.06780920462288
O           1.61088239259019    1.97564001828916    0.66587161587301
H           2.36524744293623    2.55580751123627    0.55360260858064
H           1.71687455911165    1.25428670165447    0.00279867222011
O           0.93417249091685    0.31805577547344    2.88223852015200
H           1.18108933285283    1.07831862034024    2.33911322999690
H           1.25606428318871   -0.44417529693246    2.38837867885373
O          -0.66671234239215    1.03107694193112   -2.25300956635106
H          -0.50412337022270    0.08500749569402   -2.07025858944723
H           0.19576851541343    1.37305437317130   -2.50180613881239
O          -2.58221426961920   -1.66274844058710   -0.63470597444948
H          -1.68614982280125   -1.73639682551096   -1.02237720248505
H          -3.09385722549675   -1.15231959460266   -1.26603508692995
O          -1.07726257275064    2.05148199104763    0.19372516931533
H          -0.15766786871808    2.26549814562609    0.42947987238913
H          -1.04983784105711    1.79217704364796   -0.75462535761601
N          -1.30016870724891   -0.31372571969870    1.29366095528354
H          -1.27575550641358    0.69438567774599    0.92308567105571
H          -2.01976877306119   -0.85519358741549    0.77017703875181
H          -0.36625869802533   -0.74828482241715    1.08198119839794
H          -1.43151678239824   -0.31202544609355    2.30169339411072
