    26
        -50.47472236  Gyration_radius:  2.50585960274 Dipole_moment: 3.299
 S          -0.75318062524148   -0.56203970186641   -0.63006777892040
O          -0.80173166748043    0.83999098352086   -1.05962777602821
O           0.62454521008905   -1.05213893511151   -0.63676409975928
O          -1.35076583322520   -0.73015554850447    0.68569293050394
O          -1.57608676916802   -1.40218756729297   -1.62750526609632
H          -1.37848899298049   -0.97414700908120   -2.51423010064543
O          -1.61222218203264    1.07343549084937    2.66251601876556
H          -1.16983621363380    0.53476082123362    3.32745055969830
H          -1.82043988033888    0.44686321045615    1.94224111531098
O           1.67011262876872   -0.82257428790536   -3.05247571166276
H           2.01773786430778   -1.68256160083272   -3.29446226682361
H           1.37180838024971   -0.90099846439995   -2.11974273916657
O          -0.81182530394586    0.00090720007881   -3.62513863119733
H           0.13336322512403   -0.25927611767251   -3.66745229074096
H          -0.84171385111615    0.73456516014873   -2.99397401220574
O           0.16453848807262   -1.28485028872285    2.78791751260692
H          -0.40593810997365   -1.18345295591680    1.99253352981514
H           0.29021343235269   -2.22746053953080    2.90389341541936
O           1.96483829561243    0.12828027449885    1.32859205107112
H           1.55115450321583   -0.36694313104726    2.06114481107440
H           1.66180816585703   -0.35069185473361    0.52770158215116
N           0.22381248310381    2.04771699363844    1.00682721691025
H          -0.49269959189635    1.87263260798566    1.76043107528440
H           1.05960687849869    1.40162213743376    1.19005740870893
H          -0.20800857336991    1.69466636156137    0.10240689582405
H           0.48939805913727    3.02403675120697    0.94203455007281
