    26
        -50.46766043  Gyration_radius:  2.43451580538 Dipole_moment: 3.429
 S          -0.92605147110121   -0.07083777980451    0.83247476508280
O          -0.93314870403277    1.16070365782151    0.05811072716500
O          -0.26993252866528   -1.14626296496427    0.06551516602793
O          -0.26375231456574    0.09997377255186    2.11742188940764
O          -2.38189027160533   -0.50319939101896    1.09684880923197
H          -2.83077388853265   -0.46988465420906    0.20198263072287
O           2.05888270513642   -1.14924382249073    2.59561632703192
H           1.13379886081708   -0.83439464459624    2.50169695608206
H           2.37260550367462   -0.79145242740294    3.42789080607097
O           1.33966510294508    2.03887248580466    1.23521803367365
H           0.78189555633462    1.46129953761384    1.79601819987570
H           0.69735771625511    2.46857742239591    0.65962184192529
O          -1.07443440310656   -1.10737137615537   -2.45991217636901
H          -0.52958794640802   -0.33931377581574   -2.69288256785717
H          -0.75202109711673   -1.34692796888123   -1.56899024368905
O           0.54914902019649    1.13317592526464   -2.10453550618506
H          -0.02564838401979    1.15841665326184   -1.30369212879898
H           0.32819916532564    1.92014552436624   -2.60493153745100
O          -3.37270866680194   -0.54505352776907   -1.29401415985149
H          -2.56339340109505   -0.69559441053840   -1.85017432000937
H          -3.91790603582653   -1.32743298171076   -1.40260950585378
N           2.15299479947251   -0.22399535511109    0.11025239584673
H           1.97442224683104    0.78350522167699    0.37929854463643
H           1.19348414576809   -0.66003109860994   -0.06534996178556
H           2.75837877636274   -0.31223331552233   -0.69876473565982
H           2.50041551375556   -0.70144070616091    0.96788976073072
