    26
        -50.47460228  Gyration_radius:  2.41935392511 Dipole_moment: 1.197
 S           0.05173159083211   -1.48206123142207   -1.32853064567100
O          -1.37108417311940   -1.19658513554462   -1.42172326255463
O           0.85575125628346   -0.36046350236135   -1.81075666719682
O           0.46141358382112   -1.93966993432206   -0.02323199647185
O           0.32351851626836   -2.67761788417903   -2.32930440522613
H          -0.12293583664439   -2.37904555593082   -3.11422963226160
O           2.17653357266877    1.22901661062583   -0.20359072116839
H           2.93446845821458    1.55862809809733   -0.68840460740206
H           1.71429407797647    0.60293283594339   -0.81356083870231
O           1.67037185751050   -0.50074331046709    1.86503322642103
H           1.34750578098542   -1.18152172565552    1.23967771416964
H           2.10068990545557    0.15894926437723    1.29601640904299
O          -1.09641478888989    1.46025526247815   -1.94505588379405
H          -1.80203377676975    0.81445267823893   -1.83055448527816
H          -0.30268521561839    0.90380537064232   -2.05400482152159
O          -2.01127925504768   -1.46669096322238    1.09531437745620
H          -1.93340469338041   -1.34290622982236    0.12223223081236
H          -1.37101634366586   -2.16236477402850    1.27816492423965
O          -0.23225093983160    2.47542020739128    0.36266705622385
H          -0.66953667887816    2.25383068262945   -0.49169273553081
H           0.70580438164018    2.26680408903256    0.21389972449453
N          -0.70403421794217    0.60295748131327    2.13863958953222
H          -1.02640054066384    0.92188982637129    3.04510341640515
H          -1.33919284055182   -0.14961090944978    1.75289342571735
H          -0.63035830262827    1.41607898777092    1.44882903489398
H           0.27054462197590    0.17425976149104    2.19616954337053
