    26
        -50.46898406  Gyration_radius:  2.47135944883 Dipole_moment: 3.730
 S           0.24438067234771    0.91309115480953   -1.02396931831749
O           1.33187472494257    0.26667728092001   -0.25797286165000
O          -1.02497233273728    0.26716570289581   -0.66999057446888
O           0.21684060495932    2.33643576861717   -0.81915162482479
O           0.51641022952812    0.66569656226215   -2.52316472414575
H           0.36199968504185   -0.29948919192602   -2.71679007032317
O          -0.07908370575187    3.44446034784597    1.52838316148690
H           0.15419240135926    3.08712517009332    0.63963349333175
H          -0.35401763629750    4.35034550833208    1.37794762845845
O           1.46572900559383   -2.35415979878031   -0.71458488090769
H           0.65638984558653   -2.55911213914119   -0.21956141545520
H           1.61307979531464   -1.39810968093219   -0.55916959648021
O           0.34048767037403   -1.87231120632449   -3.02886905175317
H           0.92939656409452   -2.04548789653888   -3.76563191470400
H           0.80323895913249   -2.20097817728105   -2.21188751233026
O          -1.68865936422940    1.33853261644598    1.70313796081596
H          -1.68887261472297    1.08048543800459    0.75972611142308
H          -1.24721298133460    2.21678950602287    1.73891572826338
O          -1.00333167682929   -2.07952515567437    0.47214389057709
H          -1.81722589889785   -2.54675669975837    0.28076261072480
H          -1.06113966067134   -1.22176254695038   -0.02632843191356
N           0.28711109406368   -0.28890598223773    2.04607929759484
H          -0.11295936386815   -1.21760471088947    1.85377637937047
H           0.83660352423265   -0.01342421652647    1.16823532455551
H          -0.54540711843446    0.40720232418205    2.08960484309960
H           0.86514758687082   -0.27637996736105    2.87872556736179
