    26
        -50.46820199  Gyration_radius:  2.66030804588 Dipole_moment: 3.386
 S          -0.09770886180391   -0.20624442414231   -1.59769493704778
O          -1.38875419232276   -0.78136863762133   -1.23519755492782
O          -0.17664791541397    1.24294427196651   -1.68616975149088
O           0.95065560960162   -0.64771022879938   -0.68249635149835
O           0.30403153419835   -0.76237703616808   -3.00475570080606
H          -0.42789509100298   -0.45026144072633   -3.57009624737498
O           3.25019400711027   -0.05450852687609    0.57757076596279
H           2.46059297261024   -0.18417612425807    0.01728862242608
H           3.86000861474420   -0.75249094521732    0.33219723109691
O           2.25984866739052    0.13159475218568    3.06927341766914
H           2.51750193923295    0.98837177112895    3.41333782100888
H           2.72401427309855    0.03701376823749    2.20630773120435
O          -1.97993794464887    0.45306966842159   -3.57288182574206
H          -2.25209204209986   -0.07129442700615   -2.80538649895436
H          -1.55024050831796    1.23166282646129   -3.19505185022095
O          -2.13212699869905   -1.69994050935529    1.15338557710011
H          -1.93752410681326   -1.37278268822784    0.24751424457995
H          -2.30693211872936   -2.63722366853238    1.06059013419140
O          -1.09458805662054    2.09530769837047    0.62659257691232
H          -2.04429995681047    2.07617961370440    0.49342361451854
H          -0.69656390504321    1.89793856825935   -0.25429275945881
N          -0.05062349719155   -0.11036958663392    1.71904221872740
H           0.69436538997007   -0.05712053059557    2.44693810655878
H          -0.80892222630430   -0.78615762563992    1.90971220656815
H          -0.47113644141153    0.82717145233924    1.51502022186140
H           0.39478088527990   -0.40722798127476    0.81582898713519
