    26
        -50.46641661  Gyration_radius:  2.48312295208 Dipole_moment: 2.464
 S          -1.37781340576915   -0.74628615915585   -1.16538058487856
O          -0.94755549838308    0.57545158090294   -1.59707364948607
O          -0.32471560139057   -1.73107039572697   -1.33587939511300
O          -1.95057077048189   -0.72014650963379    0.16713975558519
O          -2.55705057342226   -1.18093268495988   -2.13185465995164
H          -2.12795177936334   -1.27991702005683   -2.97637369651478
O           2.08711913245010   -0.50417052340069   -1.02291238330625
H           2.21377860301147   -0.73753808587863   -0.09568348177197
H           1.25286179601383   -0.93416782550335   -1.28475263729325
O           1.41009061748795   -0.68371376138614    1.75337335165492
H           1.60965165941206   -0.68852142196437    2.69029687821129
H           0.77640376249850   -1.44079171247541    1.59902588985861
O           2.40222160178840    2.18169761189875   -1.04337321806461
H           2.14493555048347    2.50493631246316   -1.90826799675223
H           2.43906386894675    1.20312549654745   -1.12792988662942
O          -0.33224373832571   -2.54717595359414    1.19700909543937
H          -1.12816457448526   -1.99042117238745    1.13872222435266
H          -0.11439112577149   -2.67942769515929    0.26017559416666
O          -2.07735952367453    1.52746115111490    1.65334059058793
H          -2.10138482704431    0.68761201579864    1.15124205894386
H          -2.98634689787911    1.82156651252521    1.71782692548444
N           0.34331049248335    1.49473607022241    0.49357065707567
H           0.73912865258894    0.68602982895345    1.02074344517293
H          -0.17361925683139    1.13115952670326   -0.35726707816185
H          -0.34744534065996    1.97782775901744    1.07836572333451
H           1.12804717631684    2.07267703513602    0.12591647805400
