    26
        -50.46977832  Gyration_radius:  2.43898621203 Dipole_moment: 5.767
 S           0.26857065579967   -1.14506759773152   -1.45592450036114
O           1.16274322914101   -0.48516995407451   -2.36532677169986
O           0.88986923423086   -1.51761651436709   -0.18753372379536
O          -0.97943994747518   -0.42589609219186   -1.21682527894494
O          -0.15921763554569   -2.49927940251809   -2.15798824998199
H           0.57982944379937   -2.62712751928181   -2.74163620283913
O           2.37321006665992    0.49760856148519    1.00509962090586
H           2.04796239061005   -0.33012274375292    0.61928216189328
H           2.48605194886928    1.09514255064722    0.23454601826015
O           0.14905803260378    1.43888787339650    2.04054551763814
H          -0.20893603436030    1.87469944020665    1.25090089216959
H           1.08345077152228    1.20370647709899    1.79156354290172
O           2.01765453884320    1.85328976816239   -1.27807530018553
H           1.84131136681047    1.05673411126696   -1.80840623710380
H           1.14616466430916    2.20658499436503   -1.04976787931082
O          -2.87077469212362   -1.27522735522348    0.40669992362156
H          -3.63595595756385   -0.71124421842121    0.28437535567852
H          -2.24309267875730   -1.05150684228711   -0.31679924529092
O          -0.69165362769234    2.09231500757947   -0.51693363071034
H          -1.29630776750350    2.62502977351371   -1.03524210541480
H          -0.81177195485689    1.16104938507518   -0.81221599650868
N          -0.64311431713862   -1.02260422111761    1.88874070744777
H          -0.01417398001798   -1.32767904967887    1.09556363608539
H          -0.46934575173284   -1.57980296629283    2.71780010053177
H          -0.40087038604276    0.02311761307012    2.05635539347122
H          -1.62122162210546   -1.12982108868187    1.55120227142872
