    26
        -50.46521611  Gyration_radius:  2.60377521436 Dipole_moment: 2.029
 S           2.08517119914463    0.52229246328068   -0.59150992777028
O           1.57997539094556    0.48877378893522   -1.94856041413087
O           1.96184096539163    1.82825593306634    0.02856907319943
O           1.51527315829430   -0.53923147072840    0.23095510425913
O           3.63916458697032    0.20942912211470   -0.66941279522307
H           3.94754390975256    0.94332157633335   -1.18976925368972
O          -0.02515587811043   -0.44344918573312    2.46469382148464
H           0.68657235995688   -0.60407148526465    1.82100319640310
H          -0.19964600699199    0.50494865546980    2.38256522252549
O          -1.85397512424578   -2.16195945368458    1.54919787181794
H          -1.69447685296394   -3.00708050603176    1.97015706227642
H          -1.24357706083450   -1.52243205945722    1.99085125935188
O          -0.05045219136837   -1.15916962490629   -3.22491036247716
H           0.65156495754738   -0.59557009259250   -2.82678787721818
H          -0.37611378120501   -0.66828021809747   -3.98090020078613
O          -0.14982555302049    2.16969077127913    1.47100583568649
H          -0.09125909009216    3.07653396488024    1.77646770109744
H           0.66834097165327    2.02403953225853    0.92079735471484
O          -2.20995479085583    1.24832305339744    0.02376187169271
H          -2.84118171893070    0.96387080347064    0.68869896263266
H          -1.47685226467553    1.68288680509320    0.51195739411779
N          -0.92092877651452   -1.00910938879746   -0.69444800804211
H           0.06211670813764   -0.86053619875964   -0.35151697287193
H          -0.85012376048477   -1.27097994574265   -1.69612719156364
H          -1.37102393129345   -1.71113531291071   -0.07869646011126
H          -1.44301742620352   -0.10936151687046   -0.57804225738125
