    26
        -50.46924658  Gyration_radius:  2.56892510138 Dipole_moment: 4.512
 S           1.17174401925565   -0.05171196246682    0.14001720923003
O           0.44334405793701    1.19732981072314   -0.14155912155526
O           0.70063903797437   -0.64065206436647    1.38900874504707
O           1.06259660285240   -0.97921095158276   -0.97206168203690
O           2.66671959558349    0.30948436272594    0.30229844083293
H           2.64457904826854    1.15590844606211    0.83417030128139
O           0.00621551292257   -0.64050942706856   -3.34246809892297
H           0.55837569023006   -0.75230603766156   -2.53232919990440
H          -0.12822527264696   -1.52194400891715   -3.69520343764569
O          -2.92142644465822   -1.03522440782963   -0.24756450263042
H          -2.18874975317673   -1.68830325401065   -0.07510501854199
H          -3.23449853710209   -0.76739775343665    0.61813437588663
O          -0.80734002846921   -2.49596605362713    0.27395300354145
H          -0.20647671827364   -2.44079522465406   -0.48006002372684
H          -0.34804092342087   -1.93735200620609    0.93152058407348
O           2.08750128672799    2.44938595383905    1.60191612575937
H           1.72789427648567    2.08708466266569    2.43986122270725
H           1.33548363074489    2.46276013722027    0.99225775566914
O           0.93434080781054    0.93492969199009    3.49270463798168
H           1.46169111716966    0.45038081665148    4.13004604628317
H           0.75889753727721    0.30870609113011    2.75540663803764
N          -1.57122576969990    0.73470019793100   -1.69608661844181
H          -2.06795786499204    1.55922822318038   -2.01488650200372
H          -1.12345587377250    0.22390812421775   -2.49546132293568
H          -0.76023638034536    1.00105409822480   -1.04634785506087
H          -2.20238865468139    0.07651252526381   -1.16216169293126
