    26
        -50.46798761  Gyration_radius:  2.53164026016 Dipole_moment: 3.782
 S           0.18820505268517   -0.90705027740552   -2.10687263382534
O           0.61461496085633   -1.41106754099009   -0.80953111858927
O          -1.20103898318786   -0.49432070057796   -2.11306445792926
O           1.07768916542616    0.11490574972894   -2.62656427503043
O           0.28561978310081   -2.14557365224847   -3.09131878219072
H          -0.13988201098630   -1.78841139387775   -3.86280884370549
O           2.05123270258473    0.16048174516848    0.83456241665801
H           1.64065802735352   -0.52817180619889    0.27784881907925
H           1.95430871708101    0.97206707036002    0.31229112780304
O           0.68587039791756    0.55812890380143    3.02728790746502
H           1.27248111307041    0.33467899791320    2.25143067469788
H           0.99065219632942    1.40781930696406    3.34793255053422
O           1.24664706636820    2.08516789148091   -0.97648763215294
H           1.22581279454787    1.34223719224835   -1.64037415965930
H           1.61226336371852    2.83956708612152   -1.44120698230717
O          -1.15663593639925   -2.35621270370341    0.82851977345487
H          -0.62407083262633   -2.92607077044355    1.38735231271482
H          -0.55060961205299   -2.06077277239553    0.10306300000084
O          -1.38190345854589    1.52870148427432   -0.47210505989913
H          -0.48266654997270    1.89195239240844   -0.56630016711365
H          -1.43463259268241    0.81305389820357   -1.14965680812008
N          -1.59204887593470    0.11792508845510    1.71567508707991
H          -1.54008335704123    0.73371230377312    0.83445277274604
H          -2.46665770084895    0.26939776600928    2.20508449431502
H          -1.51022885477097   -0.88744951843841    1.40327345689216
H          -0.76559657601411    0.33530424935886    2.32751652705848
