    26
        -50.45757820  Gyration_radius:  2.55677973118 Dipole_moment: 3.356
 S           0.35668043367146   -0.43303081733029    0.18612162278202
O           0.24602914742797   -0.46396310104222    1.62199694599387
O           1.33519915976651   -1.33668157540673   -0.36877915016213
O          -0.98279585918226   -0.73824071512387   -0.45155713813208
O           0.70012995014492    1.00514867788641   -0.21117101610891
O           0.25803386357685   -1.41277981787109   -2.84956716258658
H          -0.67530851408675   -1.37014710339763   -2.62497917395681
H           0.70835646888520   -1.64599850539688   -2.01972235958992
O           3.56217589483732   -0.26500195019851   -1.48656390802792
H           4.15214217739565    0.02999944779956   -0.79177413466605
H           2.87149882996794   -0.80145341522979   -1.05671639168774
O          -1.99690546766506   -1.40929353593923    2.75950691520840
H          -1.99252432239705   -2.36485428126638    2.68563151229148
H          -1.10397666350946   -1.10718527072920    2.50135609315136
O           1.43603482871427    0.95867324244367   -2.59211533900929
H           0.97933004058239    0.15245652433959   -2.92979034769695
H           0.98103174306905    1.04538690046805   -1.22738671008497
H           2.36031151038501    0.67618285193991   -2.44016555498781
O          -2.77265751704325    0.27890561561128    0.86615884836612
H          -2.28722086446311    1.09314307025545    1.21850353224684
H          -1.84468431339329   -0.25999139873107    0.10583224828667
H          -2.77499328405393   -0.35280745774639    1.62222101512889
N          -1.11717643343845    2.07557855364871    1.79279642721916
H          -0.74525732149573    2.70528236086674    1.09312399886371
H          -0.41883782501580    1.35021367495299    1.94076472093450
H          -1.23461565268947    2.59045802520633    2.65627452622557
