    26
        -50.46781261  Gyration_radius:  2.52552153362 Dipole_moment: 3.416
 S          -0.47119815967358   -0.83257280379329   -2.02299701101292
O          -1.83015631241563   -0.56950271760693   -1.59882198719867
O           0.07822753625459    0.22203900235289   -2.85198193521464
O           0.40018218615734   -1.18567768406626   -0.91014608131816
O          -0.52949028916350   -2.13826000557770   -2.92482259614403
H          -1.15657980189256   -1.87317541483759   -3.58873488572486
O           2.18096241401201    0.60033904929237    0.01849197095472
H           1.64672472785493   -0.13506069389337   -0.34012676215507
H           1.81109771998155    1.38952771761249   -0.40494671355582
O           1.72291664194290    0.62499737680135    2.58423991143630
H           1.95665725880366    0.68762730935166    1.61442836519562
H           2.36777010338286    0.02922576202370    2.96718751204798
O           0.50536876284088    2.29770014310547   -1.37230591181241
H           0.51617530907736    3.08096021509877   -1.92465344821796
H           0.37240818387400    1.52881933826391   -1.98783737460888
O          -0.70853478485062   -2.43921856132270    1.06824639710232
H          -0.09075317544993   -3.14260010892461    1.27485106750052
H          -0.37243920144605   -2.02508544102206    0.23403691497360
O          -1.58846938481583    1.38396514967444    0.12362681350691
H          -0.85057112375337    1.86785139397501   -0.29049314220485
H          -1.81822757043442    0.67470253411346   -0.52121251323986
N          -0.83458656237423   -0.01193318939098    2.19572340304168
H          -1.15176515389317    0.60292492967716    1.36804550104161
H          -1.46174930128623    0.11503360157460    2.98197335976477
H          -0.84665620416507   -1.00580629686084    1.86108879247469
H           0.15268616143861    0.25317938437565    2.44714037337707
