    26
        -50.46798730  Gyration_radius:  2.53168867799 Dipole_moment: 3.781
 S           0.68626396208389   -1.92529712843344   -1.05784672194458
O           1.46808995841556   -1.99899319484797    0.16026894881877
O          -0.64327290423872   -1.37593484071839   -0.83522302308828
O           1.39090465908452   -1.25648432244175   -2.13555888607736
O           0.44957174597855   -3.42259513371550   -1.52144925281828
H           1.33961183451428   -3.75594028198411   -1.49489582465402
O          -1.16421595468986    1.18404433126855   -1.47424327105666
H          -0.24543266536315    1.43343303754317   -1.65982015886723
H          -1.11982568776258    0.22152618960751   -1.31777589309115
O           1.82724020123716    0.46369285698759    0.95130405576084
H           1.80436488255312   -0.49845419221088    0.73316391449129
H           1.81160112489378    0.91339892063954    0.08696817509211
O           1.59141148357014    1.26512582013018   -1.65144014125447
H           1.52714815909909    0.30002065446443   -1.89127887740329
H           2.27156703780874    1.62999676584934   -2.21987790535447
O          -1.71242310571573   -1.53260977892778    1.51969219364011
H          -1.25908545676004   -1.60266733628715    0.64192923465639
H          -2.64771260063519   -1.46325160756237    1.31706053160240
O          -1.82557735194316    2.47433480477374    0.69975077187769
H          -1.68424709233812    1.98437178485054   -0.15826199034791
H          -1.56661968484087    3.38044018375562    0.52780575289344
N          -0.46294405817787    0.72630417782878    2.17926441835620
H          -0.96843497044296   -0.18660019345918    2.01787607144016
H          -1.00671967367961    1.48732816474099    1.69966120853501
H          -0.36424737680683    0.90880176435283    3.17141481610085
H           0.50298354411273    0.64600854373210    1.71151187267975
