    26
        -50.47049389  Gyration_radius:  2.43019558073 Dipole_moment: 2.851
 S           1.08107995517330   -1.51720876155287    0.02351207120045
O          -0.24757751497042   -2.05743438846996   -0.17141121813428
O           1.54986207733758   -0.81721470365518   -1.16960578840291
O           1.20630533626905   -0.70704567463903    1.22077613393428
O           2.05445833933192   -2.74451175521944    0.23236761031166
H           1.83691661511376   -3.29882368989694   -0.50893673118597
O          -2.35267856429419   -0.90734687850985    1.22024826414542
H          -1.60843460245548   -1.47139597999366    0.95424480261558
H          -1.95330650701072   -0.15014651284595    1.67150963714785
O          -0.55793677675146    0.97732560807395    2.22511496479163
H          -0.33442440290089    1.16727753314386    3.13760556565190
H           0.10527168536216    0.32252387571612    1.90940799039381
O          -2.41360581732907   -0.84186649402514   -1.44077636923181
H          -1.82078997648134   -1.60204953244339   -1.35681435367510
H          -2.72495088553147   -0.71683638465166   -0.51819222112172
O           0.06523996356215    2.57057230229373    0.09372113503453
H           1.02658407459613    2.37982924268198    0.16420025311741
H          -0.31868300036517    2.18943018833557    0.90375498067132
O           2.49368155250560    1.42327253256740    0.23812494135443
H           2.14767203510766    0.65471485096361    0.72981716075662
H           2.76309026598568    1.05681115041790   -0.60832814521589
N          -0.40713333015348    0.82925823110230   -1.80712275350053
H          -0.36326054318120    1.22666331721551   -2.73968295621119
H           0.39982995291770    0.16933210558786   -1.64785264357941
H          -0.32567647009996    1.60237489934564   -1.06879371191612
H          -1.30153347172367    0.26249491833017   -1.68688862886333
