    26
        -50.47026229  Gyration_radius:  2.45487097145 Dipole_moment: 3.219
 S           0.09886313074993   -0.78786349121710   -1.63406907330570
O          -1.11177996318509   -1.39528464143286   -2.13099769667238
O          -0.10738758761654    0.59601342211324   -1.20424317275172
O           0.78196501698234   -1.55605794733269   -0.61249403197723
O           1.09628907732915   -0.72544500014226   -2.86975916334659
H           0.52690359775790   -0.75127299978510   -3.63240301830622
O          -0.12111711253033    2.73514288653109    0.63811845546482
H          -0.98251492366997    2.51910437276079    1.00585351635724
H          -0.04391691445556    2.20408555356058   -0.16701921381637
O           1.92690252420874    1.44277027806696    1.83123385911207
H           2.41104304750083    1.22723886362433    1.00779499782733
H           1.28464766899704    2.12824657464027    1.55335734463514
O           2.54987695404022    0.61198616551239   -0.65938044112353
H           1.63755377432269    0.72493061542031   -0.96926049286058
H           2.74025743707298   -0.31817703173767   -0.80242448567127
O          -2.74795573910686   -2.01429520070865   -0.13879024970826
H          -3.59159218939785   -2.26334287416612   -0.52029021004784
H          -2.13444814555443   -1.89668945819718   -0.89611274165751
O          -1.93083952028484    0.36266048347061    0.77416135350935
H          -1.42104862412414    0.53219927086803   -0.04058676626496
H          -2.43118676781816   -0.45566700392176    0.58081947718804
N           0.31440237002420   -0.60049052579651    1.80835744663537
H          -0.64586002392899   -0.20046235579799    1.62577730373523
H           0.57447574273757   -1.09378306563032    0.91675139533802
H           1.01196280376298    0.21582852735269    1.94204050671625
H           0.31450439613958   -1.24137542805470    2.59356513100380
