    26
        -50.46727942  Gyration_radius:  2.58693293805 Dipole_moment: 1.632
 S          -2.10304164975891    0.22345863111092   -0.14297875088628
O          -1.03107130855144    0.65639576115187    0.75390709345235
O          -2.75558670888122    1.31195628884224   -0.82009443764611
O          -1.62601952611798   -0.84432130763599   -1.01222162499659
O          -3.20665844475678   -0.43275095913585    0.79625416970387
H          -3.93304414975032    0.17648538352588    0.71426784495945
O           0.38145102306536   -2.30669583360545   -0.25043882527881
H          -0.42685070571351   -1.80792420772854   -0.53315087930037
H           0.36253181831289   -3.13640866104337   -0.72869899157434
O          -0.73356331684428    1.16553291312509   -2.57121781971584
H          -1.46770702829461    1.59907912718348   -2.10755718651740
H          -0.89639343830873    0.23019559230781   -2.38613652219376
O           1.82415017983193    1.75992225115037   -2.08863314898757
H           0.90515157115015    1.56606914296592   -2.38622139250321
H           1.90931479377935    2.71414048053866   -2.09420101263017
O           2.30652892407157   -0.03141026624224    2.59772699488320
H           1.48804895986955   -0.58151505657335    2.67441126861303
H           2.23061076923440    0.65035509608910    3.26617890040601
O          -0.03176400091215   -1.29075268208631    2.36483050260350
H           0.11503187422831   -1.93338350011426    1.65710253948158
H          -0.55402913766831   -0.58015544132225    1.95075989600217
N           1.47795282336096    0.18662245765293    0.05838699441499
H           0.49313705154805    0.47642892716307    0.29814692125641
H           1.82373714011975    0.78904587307999   -0.71824983378733
H           2.03698976284826    0.24066842562848    0.93718664850140
H           1.41109270413303   -0.80103845603002   -0.22935933826479
