    26
        -50.47291484  Gyration_radius:  2.43810338931 Dipole_moment: 3.486
 S          -0.03661254154455    0.82732014633629   -1.07961280476764
O           0.15886682116178   -0.62684330967775   -0.94646546691160
O          -1.00445901826168    1.27403740878483   -0.06043728113732
O           1.20639712275692    1.54405470088358   -0.97714503767122
O          -0.65860822706156    1.09393029452164   -2.46523582124459
H          -1.28670756034941    0.32420969525044   -2.60002614524518
O          -3.37020979781525    0.13755550952558   -0.34428627051002
H          -2.51752225820167    0.59248947180719   -0.16613727190304
H          -4.00542855819825    0.82749292911788   -0.54284304457363
O           2.64200561655840   -1.14220563689469   -0.09564691190492
H           1.77475986628512   -0.92490579896346   -0.49991753753662
H           3.27993447457597   -1.09508770392692   -0.80915077058224
O           0.22484476099963   -1.92824897126136    1.40278542838538
H           0.03008741721039   -1.59256285925416    0.50450293685110
H           1.13281005412526   -2.24339306134510    1.35044520821166
O          -2.09376807477815   -1.02828917084115   -2.39084285984675
H          -1.34264998477244   -1.39837291419239   -1.90610076105205
H          -2.74746673980830   -0.77330228636686   -1.70471597834433
O           2.56223948844151    1.20528705595691    1.26776924972522
H           2.85725096319198    0.31936056781217    0.98217690600115
H           2.19605622373496    1.58483339082566    0.44080654640341
N           0.18901571535921    0.61218565692648    2.16655025140744
H          -0.38195348231594    0.97497280078807    1.35030312896856
H           1.20075750947904    0.91816181196425    1.97076931133576
H          -0.16173559740231    0.95652142015810    3.05329442896512
H           0.15209583663503   -0.43920114794295    2.09916058697378
