    26
        -50.47434787  Gyration_radius:  2.43605196899 Dipole_moment: 4.477
 S           0.15714004320538    0.90739377389311   -1.23874874816537
O           0.61648651788910    1.97162717236705   -0.35428582997764
O           1.02403119756241   -0.27123030601486   -1.09820615276118
O          -1.23382155451802    0.57436040950456   -1.03077682617670
O           0.30162772950895    1.39553589603639   -2.71450910329674
H           1.24662948611983    1.64478822507566   -2.74737944042681
O          -2.15188549066297   -1.54657442011865    0.28625093586898
H          -2.01411205793000   -0.77640170938171   -0.30349394322273
H          -1.46547514394404   -2.18016192257472   -0.00195946756396
O           1.40786355559242   -1.00650830516306    1.42033412981044
H           1.37669915619859   -0.59243506540828    0.53032490407116
H           1.37743444114474   -1.95222849392669    1.24351267347660
O           2.77651943522908    1.77033390786045   -1.88718051588083
H           2.24490003312908    2.10578172273613   -1.14457309375356
H           2.92454467313588    0.84052838658829   -1.68787573158111
O           0.08894035089103   -2.71552074116527   -0.68802850656401
H           0.43533571082807   -1.82438107141431   -0.92148976863754
H           0.03515433045853   -3.20285059754223   -1.51107677603464
O          -1.41416573408716    2.12617687037805    1.28266491162369
H          -2.08189169300832    1.94742569407084    0.61229840893336
H          -0.58585054785252    2.21914668032681    0.75693301860604
N          -1.01699355346161   -0.29088980843958    2.27562953912865
H          -1.28034654845142   -0.46377947734270    3.23902165758570
H          -0.00624556338943   -0.52703946868314    2.09771153776910
H          -1.58652129553453   -0.87886312491551    1.58127982187092
H          -1.17599747805479    0.72576579325226    2.00362236529420
