    26
        -50.46422793  Gyration_radius:  2.57399998155 Dipole_moment: 3.100
 S          -1.28038527871417    1.02520987407041   -1.63020518533916
O          -1.08173640115980   -0.25946011752178   -0.95193055835597
O          -1.96386855775989    1.99213991284991   -0.80148451925709
O          -0.03003655991085    1.49316279648958   -2.19386440547656
O          -2.26992507537876    0.73721388615839   -2.83739196095995
H          -3.02174883743735    1.25674022560701   -2.57235937653346
O          -0.06349185808746    2.12067041146688    1.04006610433480
H          -0.82026735464722    2.15781791140745    0.41974439932510
H           0.73796331443691    2.13799634503794    0.49748634734351
O           0.05981080604255   -0.03707079368781    2.50908917296718
H          -0.11201605518846    0.81729226831908    2.02873693031510
H           0.25997625952398    0.19872201427113    3.41535854945742
O           2.11050292366982    1.64461993452818   -0.75819704167225
H           1.33300119075478    1.59723996382253   -1.37479743284747
H           2.70241879645229    2.29652821462053   -1.13571816970266
O           0.82445393297890   -3.37991858094474    0.21863171246351
H           0.57642051943401   -3.93873891334217   -0.51862345606401
H          -0.02333275322270   -3.06264356457529    0.61550869946318
O          -1.35429803615009   -2.08017539765919    1.08083834304623
H          -1.06503308453415   -1.48210524687676    1.78323656801787
H          -1.50520763524561   -1.50551836755526    0.31284791959530
N           1.23694980175946   -0.75109471130289    0.16703277148554
H           1.96665859301482   -0.11771978517088   -0.17565950001426
H           0.34060804333852   -0.53566269199667   -0.36316662683359
H           1.41949798751517   -1.76988923218432    0.06107818496219
H           1.02308532851889   -0.55535635582795    1.16374252028391
