    26
        -50.46509747  Gyration_radius:  2.48597453094 Dipole_moment: 3.319
 S          -1.12925095181861    0.20712127309783   -1.74003584141930
O          -0.28919735329130   -0.92749719739761   -2.07408396255561
O          -2.15415829748063   -0.15698938307470   -0.77049750644637
O          -0.38094001989813    1.38429229093973   -1.35087623826462
O          -1.89554672955893    0.60650530692277   -3.06661026564001
H          -2.33663997155520   -0.20812291201398   -3.28054310369787
O          -0.77549653540802    2.42591820070305    1.05822295026824
H          -0.71515547686981    2.03367796689338    0.16220469273032
H          -0.47946330371721    3.33321772232330    0.97343166347993
O           0.19785118002450    0.45041757926442    2.59167976996910
H          -0.13268891225181    1.26817471001290    2.16599125080984
H           1.05595946932092    0.24022836752993    2.14482569994307
O           2.26712680453596    1.16955397629729   -1.18938852186110
H           1.30061661055845    1.19267408407409   -1.33996591259912
H           2.57766830968562    2.06944111866834   -1.29893080633578
O           0.76076951454035   -2.38679920152027   -0.21006193702549
H           1.22149163570100   -3.11296486851275   -0.63256108477563
H           0.40687731134543   -1.82369237034859   -0.94867293468236
O           2.20866324260288   -0.34118681501794    1.06627805338821
H           2.35780084394794    0.25136401903821    0.30542747994819
H           1.84433896612365   -1.14998472204427    0.67669862702724
N          -1.19927895487640   -1.32611268019691    1.36461844847770
H          -1.65856921514444   -0.82418849608289    0.55119030711194
H          -1.88911290479265   -1.82539829123848    1.91428958956997
H          -0.50249284461706   -1.96884166578721    0.95824129496916
H          -0.66117242710736   -0.58080802253043    1.96912828761089
