    26
        -50.45757821  Gyration_radius:  2.55674970325 Dipole_moment: 3.358
 S          -0.42638079709282    0.21075601931466    0.35090863943358
O           0.92434972218069   -0.40507904999053    0.72569002404380
O          -1.45275012814568   -0.30083636594951    1.22660877402437
O          -0.26412712220211    1.64184659750332    0.37559187704790
O          -0.72869094013632   -0.26036040800345   -1.05641620779994
O          -0.91446704035122    3.08812909795982   -1.79314391992925
H          -1.86999016744545    3.14353166358471   -1.84293580461296
H          -0.70382494665499    2.71448940496162   -0.91492746989442
O          -1.78329769682548   -2.64494525532606   -0.08342076940003
H          -1.93424018656471   -1.83384978990935    0.43152558779973
H          -1.65462484308140   -2.34737878991601   -0.98800868414709
O          -0.67360533102791   -1.74297797404437    3.38771688221850
H          -1.10646760342308   -1.18613752947267    2.71530212439060
H          -0.32741996796812   -1.14841736035518    4.05439735567242
O           0.55857012272149    1.05994164732103   -2.66082978386364
H           1.38023390072626    1.25559185356308   -2.10457409309653
H          -0.13018001400726    0.30089825606406   -1.83700376992370
H           0.03147365375100    1.89146121180878   -2.62253292463350
O           0.52457811492135   -2.81323428266203    1.22927940220225
H           0.81522232231164   -1.43809684851117    0.91056592437968
H           0.20788473801754   -2.70598191136091    2.14873470048249
H          -0.28898874238094   -2.99801638536093    0.70339577747804
N           2.35499697558632    1.58770076574312   -0.83837827617789
H           2.86466659052820    0.77974846030711   -0.50395042688763
H           1.61340692696204    1.77031807902801   -0.16575338725646
H           2.98367246960250    2.38089888370249   -0.84784153156855
