    26
        -50.46866593  Gyration_radius:  2.5251500283 Dipole_moment: 3.591
 S          -1.15698256709804   -0.43290190933391   -0.49900080533486
O          -0.33057422388130    0.48345159200562   -1.30273617464958
O          -0.34686526402549   -1.53661630086455   -0.00308320162419
O          -1.82605043848374    0.28092456689624    0.57873102874454
O          -2.27466463803284   -0.98501724036015   -1.41102090622600
H          -1.84298850089295   -1.49689623288445   -2.14640737138054
O           1.23268192183254   -1.42392692990599   -2.24086915129842
H           1.17035788146911   -1.97324163375647   -1.45065666418693
H           0.75869276768829   -0.60417947657776   -1.98818794031895
O           1.48642023461986   -0.79794348965492    1.72548610320611
H           1.85819754962161   -0.06201533214232    1.21290055292442
H           0.86515159278772   -1.24274246208427    1.10231647228979
O           1.61741935661022    1.44305463624916    0.09599893623280
H           2.28457792915437    1.71995985408294   -0.53463209391045
H           0.85170849220788    1.10922529795509   -0.44615140804468
O          -1.03336636715219   -2.15044808804738   -3.38492305364668
H          -0.09917610473871   -2.00782726988539   -3.09058191344475
H          -1.15371447425649   -1.62068198767824   -4.17569084258463
O           0.16244385787975    2.94122704536457    1.82157741167877
H           0.81099851991722    2.52810683903193    1.21565653809886
H          -0.60431213745924    3.14270607927849    1.27974396907235
N          -0.49407863013462    0.53473195718117    2.77474174671193
H           0.36953211073806   -0.05823537776230    2.56176187907968
H          -0.23139712110118    1.54443698273118    2.68831930653088
H          -1.15300200941471    0.35365607914238    1.95100364316939
H          -0.92100975787863    0.31119281097293    3.66570395890970
