    26
        -50.47301027  Gyration_radius:  2.48579414283 Dipole_moment: 3.140
 S           0.62250085029786   -0.91760606664326   -1.69213946562302
O           0.49592135304270    0.11436008826523   -2.70338695942608
O           1.71444559405570   -0.64494032165008   -0.76837957585516
O          -0.62562004613260   -1.21007190947858   -1.01223600717570
O           1.00892044296176   -2.25011484709008   -2.45869833282829
H           1.73991818350328   -1.98112519067440   -3.00545681075819
O           1.35911487913456    1.70320378798512    0.39002917829224
H           0.87274982256679    2.15354803872469   -0.32080799275155
H           1.63617274427773    0.84604480591181   -0.00194542752569
O          -0.34193032252294   -1.40867598310790    2.96428981124051
H           0.14325500643611   -1.87807456221814    2.23276722394907
H          -1.11934634049496   -1.94156586302007    3.13865108472855
O          -2.14745447365321    0.82580025333685   -0.24452114744333
H          -1.75456640067083   -0.00925273801340   -0.57528750188231
H          -1.73786686606223    1.51466466633458   -0.79518020240087
O           0.71524999637571   -2.53492504381117    0.84203265307394
H           0.02713029462216   -2.30457888135492    0.19223761498985
H           1.46741732983048   -2.00957691375506    0.53224229233341
O          -0.35110784009169    2.33308106891170   -1.68417685385820
H          -0.38814942206873    2.99658274534171   -2.37500460370505
H          -0.03573739598188    1.49973611569409   -2.12453019074898
N          -0.66774901677874    1.02819677372603    1.91967273932247
H          -0.93791594341095    1.72441625723280    2.60528691167952
H          -1.39096778275065    0.94915241264281    1.13893098115805
H           0.23640216076906    1.31340434883048    1.42787421016912
H          -0.54078681722108    0.08831696791751    2.37773638103615
