    26
        -50.47032745  Gyration_radius:  2.41171825744 Dipole_moment: 6.160
 S          -0.94328898169745   -0.51913971614188   -1.37189969989254
O          -1.57859812259724    0.50007366352070   -0.54282905182665
O          -0.56397921202266   -0.06939566220367   -2.67804830313665
O           0.10683996945805   -1.20995794697232   -0.63532133689263
O          -2.06313267708206   -1.64037432380642   -1.59014257467522
H          -2.40297504560204   -1.39600034068640   -2.44387529416446
O           1.28830840145810    1.14346281193345    1.86485916952838
H           1.89587888730162    0.63769611579505    1.29718837149010
H           0.94012536911915    1.85982408325511    1.27284251968700
O           2.52553292428395   -0.33600650897393   -0.09735362202426
H           1.64956511274445   -0.72055640794065   -0.31803996023785
H           3.14797619979219   -1.06390172874522   -0.07280069923055
O           0.11514442861063    2.62331842867378    0.01863152552703
H          -0.65140450542265    2.07664223183676   -0.20704897202070
H           0.72078310815281    2.50133356970399   -0.74223795024345
O          -1.12957363029958   -2.61590621568412    1.20630267845418
H          -1.92872549865400   -2.94857501969688    0.79353435889955
H          -0.59117963969339   -2.25214176892335    0.47133448327339
O           1.53219754148378    1.55874350501916   -1.99527827093487
H           0.83628736729767    1.00877946386282   -2.39057323746363
H           2.10699986402137    0.96622274360339   -1.49335243632982
N          -1.01668794530052   -0.02774466847887    1.96219460895230
H          -1.34665166889634    0.24258837561762    0.99492669256319
H          -1.02495897759977   -1.06686451716235    1.98315413709631
H          -0.00862193510009    0.37894194673928    2.03577195656467
H          -1.61586134376293    0.36893792585744    2.67806089703468
