    26
        -50.47075001  Gyration_radius:  2.49836411752 Dipole_moment: 4.981
 S          -0.86493486104047    1.16024281806497   -0.57209208841297
O           0.35878594663087    0.56278210221053   -1.11860956755612
O          -2.03333519307231    0.79160214551268   -1.33090154461765
O          -0.98280959290337    0.86169684243006    0.85502351197765
O          -0.66427420757854    2.71267932313538   -0.64799474672724
H          -0.64338395928019    2.87954391600452   -1.61058076732194
O           2.71586548947427    0.61323349073480    0.01319560040103
H           1.87464980034396    0.69534174269985   -0.49775176446930
H           3.18282848661890   -0.13019760298676   -0.37445914906713
O           0.82397740958526   -2.48150965963013    1.91124761707165
H           0.04192158003114   -2.86790865587253    2.31025128454875
H           0.61793151389876   -2.42454897056797    0.93613571708778
O          -0.73848703403071    2.14109125308148   -3.22814806542839
H           0.03452300073146    1.56977282381389   -3.25665589163414
H          -1.44813889035045    1.59044268889060   -2.85454188190775
O          -2.44657098740148   -1.37178244983635    0.36922779293907
H          -2.05169596879983   -0.57613350666279    0.76229084425012
H          -2.89782623293240   -1.03574983181076   -0.41227462661638
O           0.00907691596875   -2.05870583408687   -0.53577901637421
H          -0.94228333032515   -2.02899440933878   -0.30745347674738
H           0.21237132621203   -1.16108238778335   -0.85269827868180
N           1.18039195156337    0.11951211514681    2.12086362598699
H           1.35154051363325    0.54570151731455    3.02446189067904
H           0.28587056683895    0.49054954017351    1.68465633791492
H           1.94499207516142    0.33907497279885    1.42985420912472
H           1.07901367106972   -0.93665397343402    2.18273245354248
