    26
        -50.46845414  Gyration_radius:  2.47676830045 Dipole_moment: 1.830
 S          -1.47836607470932   -0.73307472617588   -0.53511528204433
O          -0.52400964220659   -1.80299985347988   -0.63390763714280
O          -2.17687701143534   -0.65249479412923    0.73018575903999
O          -0.87766747804934    0.56536081480805   -0.88389013052524
O          -2.58248040476750   -0.99715371367956   -1.64611251556642
H          -3.36756729492689   -0.56816859595597   -1.31774289710640
O           2.15140395315258   -1.50919028793315   -1.25927017445914
H           1.32216846318150   -1.96242181955969   -1.03690309429627
H           1.91819763995213   -1.01424370652931   -2.06578752194300
O           1.41871808387784    2.58952660477150    1.80592815429775
H           1.59214957294648    3.49842563814278    1.55905401281065
H           0.44489498595506    2.47931686576618    1.78260998809023
O           0.54856310181305   -0.20819679855895   -3.05065876358172
H           0.00391539075349    0.17223505602768   -2.33974905203592
H           0.00105081338788   -0.87382126628600   -3.47078311012883
O          -0.08100808679064   -1.45268543089483    2.14516737917385
H           0.07184843162158   -2.34062851028766    1.81265830960279
H          -0.94382108390854   -1.18602513184941    1.76723647016917
O          -1.21016948046601    2.02656065522960    1.37586478509277
H          -1.68497058857893    1.37805028649186    1.90278956692490
H          -1.19146697377290    1.64952939461529    0.47942980132856
N           1.36343447803249    0.20002686674078    0.58513919750481
H           0.56544444355301    0.48314765666457   -0.01873003549323
H           0.95649739139221   -0.41874119060306    1.32837848514250
H           1.99408977162426   -0.37369612378212   -0.03125583880342
H           1.76602759837241    1.05136212045667    1.01546414395519
