    26
        -50.46604631  Gyration_radius:  2.49564548348 Dipole_moment: 2.551
 S          -0.47935446407953   -1.63526522996643   -0.86642414230096
O           0.97575976084287   -1.60208422478588   -0.90171943594555
O          -0.95986401472666   -1.48801789273686    0.50652255918162
O          -1.09862966946751   -0.71290572010714   -1.78242157904389
O          -0.90561056687991   -3.08793844757240   -1.31872660274514
H          -0.48354427636410   -3.63265130107865   -0.66274209371826
O           2.27616121221341    0.55456116958399   -1.75269609555472
H           1.83386068999005   -0.29472227246487   -1.53427702806781
H           2.59963841550823    0.46732886695441   -2.65025497719372
O           0.95894083821656    1.35956353681488    2.92351831931132
H           1.50877442627740    0.82013858475176    2.31129246076140
H           0.93867655163256    0.88192771806354    3.75387134647407
O           2.16499448029806   -0.16508576624725    1.08199374383021
H           1.67938661574626   -0.81596978908804    0.54479677136746
H           2.64191464328053    0.36883429987769    0.43802132276061
O          -3.24723428668859   -0.03508286523449   -0.01073017957282
H          -3.12576958729975    0.06020649314665   -0.95936334272528
H          -2.65207053594928   -0.75760528158678    0.23468729224282
O          -0.13888825648582    1.74133119029702   -1.36214129139031
H           0.81202122792341    1.56786418551896   -1.49216468293625
H          -0.58108921378015    0.94197914027461   -1.71002061684836
N          -0.94787786766622    1.11546103706504    1.06381222057904
H          -0.58702208541206    1.53408898586055    0.15420932931629
H          -1.93687618717688    1.34425955135589    1.16795100090286
H          -0.89149581877999    0.07301553936467    0.94759865092244
H          -0.35480203117040    1.39676849193434    1.87540703039680
