    26
        -50.45757817  Gyration_radius:  2.5568038671 Dipole_moment: 3.355
 S           0.31546665238336    0.43807867541277    0.24056013346604
O           1.67097309809151    0.93177330228003    0.21145537057323
O          -0.61903101478707    1.26928320722080    0.95520000593665
O          -0.21009325449394    0.29158991729442   -1.19002148331402
O           0.33403665953348   -0.95788119345761    0.82793868697260
O          -1.70038712605309    0.38035853490318    3.24839691043057
H          -1.34506113259814    0.86607246540528    2.47828703452711
H          -1.03693316677632    0.44035087413819    3.93744415181075
O           2.65252812963740    1.80709159527610   -2.16077584644106
H           2.42679967675076    1.61069598918663   -1.23336368361580
H           2.28058624097958    2.66791543876983   -2.35706370876563
O           2.81934967635112   -1.45997032311695   -0.31910425272029
H           2.24581563917959   -2.03533159391275    0.19412689711064
H           2.64046421085289   -0.56298246118347    0.01137586364866
O           1.64188779574563   -0.65371874368730   -2.56454364552431
H           0.52729452303892   -0.14384576291001   -1.80638063751185
H           2.12804755329690    0.18018429056676   -2.72409166602841
H           2.17581488622276   -1.12975524643949   -1.88569158373612
O          -1.92756974043082   -1.59934030596546    1.49750007924060
H          -2.46347902308782   -1.09303824120741    0.80528223336582
H          -0.69883720874330   -1.31450770750875    1.12476109418414
H          -1.99944822914887   -1.05188649441839    2.31349604062428
N          -2.95113286891020    0.05949866795934   -0.24268490407751
H          -2.27539372302478    0.76626195414934    0.03940731138857
H          -3.87832312077157    0.46240679432392   -0.19293457995165
H          -2.75337513323924   -0.16930365308736   -1.20857581158482
