    26
        -50.46641709  Gyration_radius:  2.48276976483 Dipole_moment: 2.471
 S           0.00368630598946    0.54048645481185   -1.87550344364944
O          -0.52112734535245    1.67188877196502   -1.13485391305501
O           1.42089710367926    0.30424433358225   -1.66639144284167
O          -0.77760096548686   -0.66643780649633   -1.64841462362213
O          -0.16683877854340    0.91266953706750   -3.40716234321433
H           0.26484938974661    0.19464827980015   -3.86031673054622
O           1.71603004155342   -1.63055398599738    0.22927563598992
H           1.85109673764909   -1.03644246316353    0.97697895661926
H           1.63988693624122   -1.05030523439558   -0.54968163146380
O           1.11077436439714    0.52843506117744    2.00863340671277
H           1.39632355249174    1.21930342626135    1.34561082483394
H           1.10760940193202    0.96233120526184    2.86272551827318
O           1.73554222026388    2.23605978932389    0.13477355594225
H           2.08867101810370    1.61240370610911   -0.52044410240677
H           0.84393280811489    2.40692766498216   -0.21493287593433
O          -0.30828558866628   -3.22629655288702    1.04743552333673
H          -0.60095911801115   -3.74291117830589    0.29505114876299
H           0.52634461866191   -2.79321912659035    0.76093534907242
O          -2.63805481238129    1.46723178091191    0.52443699550115
H          -1.89419161453682    1.61983327191998   -0.09314193708364
H          -3.39611994516464    1.90542707908074    0.13687002949849
N          -1.09856362719706   -0.68911898713332    0.95533077284869
H          -1.95921504926905   -0.16610967827415    1.15126033953743
H          -0.97112436162997   -0.68915559361198   -0.09690234370665
H          -0.28793598695149   -0.20133102586980    1.39478613700065
H          -1.08562732562283   -1.69000873952240    1.24364118358712
