    26
        -50.46854229  Gyration_radius:  2.46847688543 Dipole_moment: 3.189
 S          -0.84030737237835   -1.40802715188045    0.87422991846713
O           0.13817366648658   -0.97474408776214    1.86506627120455
O          -1.94791312629898   -0.46853225757023    0.75139262140227
O          -0.23571922524287   -1.74137998858286   -0.38960817498933
O          -1.47264963563791   -2.75286324722039    1.43377743235185
H          -1.93750129488525   -2.45509928514752    2.20858737613612
O           1.89232670147505    0.45410052779024    0.45261481008508
H           1.36489203647381   -0.18817211682044    0.97233229168287
H           1.48180170745437    1.31692510486161    0.63677938139358
O          -1.10276905734043    1.23456587880743    2.58581737088552
H          -1.76213723446236    0.84249464318654    1.98608204019046
H          -0.46246514110587    0.50391233310003    2.66831643527286
O           0.21125132880666    2.63167694736466    0.80690124154268
H           0.29996156499694    3.55060225572016    1.06180106923755
H          -0.29590503799234    2.18529087827818    1.54231238818407
O          -1.15910673845148    1.22219991811803   -1.15515647604249
H          -1.55451383172082    0.54212255256250   -0.57126610138487
H          -0.77342376063080    1.87893004429834   -0.54969882683688
O           0.84692282903368   -2.35719728554308   -2.69396470679569
H           1.55298608147865   -2.96813581948725   -2.47446105798727
H           0.27503850409375   -2.32243740905164   -1.90083317461915
N           1.11602625642897    0.25921486428476   -2.05395500216565
H           1.59875908583873    0.88081205448074   -2.69306267340318
H           0.12524012157640    0.60017349521497   -1.85338846394111
H           1.07186416825014   -0.71771529614700   -2.42194794410763
H           1.56916738375100    0.25128245714499   -1.08866804576815
