    26
        -50.46853926  Gyration_radius:  2.55743337169 Dipole_moment: 1.246
 S           1.24324765500773   -1.63348693178279   -0.23715564764524
O           1.63421719314441   -1.79907098717541    1.14396452060258
O          -0.20966787829836   -1.54614223399552   -0.38130776626057
O           1.90763670063686   -0.53173559280907   -0.90823397653648
O           1.68872390687331   -2.94369097374403   -1.00576897181543
H           1.39554668008500   -3.62499923691881   -0.41006084497076
O           1.40144360862872    1.87107187360103    0.18126964890502
H           1.83855177539609    1.03752714808395   -0.07927758957706
H           1.10674863727634    2.25556922457305   -0.65215951548550
O           0.48478127247911   -0.76671714458533    3.30907931536527
H           0.92156204044677   -1.25435168547709    2.57707186014911
H           1.19423785409537   -0.44855939371665    3.86941916916751
O           0.50569134238414    1.08969951365801   -2.47270829069309
H           0.78462892571079    0.99479449663148   -3.38442238303240
H           1.01843323855013    0.42375964231996   -1.96170406131516
O          -2.99271686421208    1.38457920890046    0.24413217823373
H          -2.75126036495923    0.86789867784985   -0.56484226725361
H          -3.27522032893376    2.24712775243477   -0.06091090187848
O          -1.95078536486879    0.04932743843857   -1.80532058371920
H          -1.19789538172768    0.56602849633490   -2.14429054130887
H          -1.53502347510443   -0.72139073676506   -1.38966843043363
N          -0.65799112844568    0.51246936880071    1.24449531918031
H          -1.60412071157805    0.92624698587017    1.11061717388634
H           0.08795856414756    1.18149715836147    0.93485917808939
H          -0.45874702542342    0.19656023714565    2.21267521582423
H          -0.57998088130426   -0.33401232604938    0.63024820253080
