    26
        -50.46804491  Gyration_radius:  2.44166080063 Dipole_moment: 2.582
 S           1.04944805295380   -1.41823766400023    0.80682370479062
O           2.31257107005298   -0.76531233616698    1.11113740930178
O          -0.01685901180558   -0.94026279427417    1.67531007681083
O           0.68966549043650   -1.35285263546776   -0.59424283159705
O           1.25184248366992   -2.95193048971160    1.13509669846065
H           1.67009741860885   -2.90485508148303    1.98782266024854
O          -1.73118468274266   -1.71260044971067   -1.71169245828687
H          -0.84376061679015   -1.60567627540891   -1.31310384780578
H          -1.72004528406349   -2.56181181931767   -2.15408309489420
O          -2.26165884738215   -0.04992485117551    0.49210134255521
H          -2.57320254376259   -0.74387043266024   -0.10134424491812
H          -1.49033206520601   -0.44228874459324    0.94378244616366
O          -0.39287410186123    1.69347752808882    2.04013833403588
H          -1.26709361383073    1.77081441258884    1.64489376483446
H          -0.25489214654456    0.73108930092195    2.14430881671708
O          -1.61917533606367    1.18363223852647   -1.83462176588819
H          -1.84116976210705    0.39734702793040   -2.34564739166459
H          -1.86304346793618    0.93711087110358   -0.91907451874232
O           1.01593426621297    1.00429318797802   -1.86962897606382
H           0.05223639446258    1.21319889267890   -1.96008206701430
H           1.02942060808733    0.06358962383225   -1.61465919055581
N           1.77518300624081    1.72339325418429    0.49420171193668
H           2.13643648539232    0.77954193899185    0.80170904652620
H           1.48571637328889    1.58498067725442   -0.53994831504175
H           0.92561903885108    1.92354316029917    1.08062914713958
H           2.48112079185069    2.44361145957454    0.60017355295386
