    26
        -50.46847783  Gyration_radius:  2.49136713762 Dipole_moment: 4.416
 S           1.71838258127746   -0.49437245898929   -0.99056315460418
O           1.05008733371850   -1.00930702748620    0.21807392456545
O           0.72749006561677   -0.22880695249398   -2.02534311108080
O           2.60727354061948    0.59070426513118   -0.71256604483134
O           2.58883734313195   -1.70618253916163   -1.51583071819001
H           1.93732613875487   -2.38658718391690   -1.65519363777425
O           0.87428338883429    0.34042795910383    2.46690467806288
H           1.01799366098107   -0.19772770270429    1.65250141748092
H           1.59170167770330    0.12056141270440    3.06282594090523
O          -1.84450159240462    0.17570633970458    2.70384230849986
H          -2.15478989579546    1.05580459977616    2.92353147656934
H          -0.86977160575802    0.20671251896372    2.76700287566950
O           0.93374176494551    2.33318303814345    0.47168173678460
H           1.65469361815934    1.87639639492598    0.00124526504361
H           0.87111265226998    1.88704618611006    1.32719685966344
O          -1.27027332146923   -1.97119021364201   -2.16989213159656
H          -1.60006932492479   -1.99337371961402   -3.06918369282665
H          -0.51915999944283   -1.33873840441511   -2.17538576899734
O          -0.99741219184291    1.70476671913700   -1.24884460715292
H          -0.39461014531216    2.16437438013795   -0.62252076056772
H          -0.39460824082829    1.19403062974996   -1.81694485693536
N          -1.54167825111789   -0.47495100725798    0.09412753317611
H          -1.92831206422218   -0.35533853520604    1.04917532482228
H          -1.50181364225409    0.45888346835984   -0.42756872319290
H          -0.53952410113128   -0.78012042189728    0.17571333864813
H          -2.01639937948492   -1.17190173516972   -0.48398547210284
