    26
        -50.46688864  Gyration_radius:  2.5040372776 Dipole_moment: 2.114
 S           0.55606207388740   -1.89412938590766   -0.09626609415921
O           1.36872879844906   -0.74096654077319    0.29855138554892
O          -0.29474460953932   -2.33930691994212    0.98463360502161
O          -0.14720453298606   -1.63017332985031   -1.33411860517273
O           1.56513949837577   -3.08367310616509   -0.37526904862860
H           1.47709326206304   -3.60846494362915    0.41389432220217
O           0.06053078738676    0.95917114428467   -2.19786839214011
H           0.99797000942228    1.17629080620265   -2.20428180045755
H           0.02560568907863    0.00745937273212   -1.99561982208446
O           2.47097782170782    1.51157343931417   -0.63967913782305
H           3.37840177598673    1.56582967564921   -0.33826341599423
H           2.12849121336963    0.65331225447492   -0.31714784851589
O           0.14492618875042    2.95516563872765   -0.23109750677283
H           1.08534102811569    2.70790964660932   -0.23832092935561
H          -0.18123981217309    2.60529708189174   -1.07415573761464
O          -1.33174817004665   -0.87721546593119    2.98840798743868
H          -2.17031405884470   -1.27551401202944    3.22623053982943
H          -0.92096022608063   -1.48890728694506    2.34280343377547
O          -2.38697818127113   -0.24896334290345   -0.95343790960194
H          -1.73930159060699   -0.96243257441971   -1.12245945794944
H          -2.32611563178857    0.32870900356721   -1.72038743462698
N          -0.76277980421322    0.75707160751813    0.93742162861201
H          -0.52258758684582    1.75953580536676    0.73247116536475
H          -1.50422351353398    0.43474546121573    0.26352908506823
H           0.09431610036125    0.18991858557303    0.75016445385450
H          -1.06538654902948    0.53775737536970    1.90026553417896
