    26
        -50.46930074  Gyration_radius:  2.43422640061 Dipole_moment: 3.383
 S          -0.07397119891469    0.09146641005933   -1.25341961512164
O          -0.25199243911646    1.36605683921192   -0.55893162725408
O           0.64675454790266   -0.85414719777080   -0.37850184767659
O          -1.33544804519327   -0.47600466743010   -1.67778556626158
O           0.79948893057392    0.33080755804355   -2.50007857993127
H           1.59068220912134    0.85716681577128   -2.17920310167876
O           2.78155808950021    0.26410608767542    0.74437225647182
H           2.12053464837920   -0.33310358505486    0.34261067093078
H           2.26473697833481    0.75414776005689    1.40388994001505
O           0.55663363810674    1.35961937602758    1.96489185688180
H           0.44699568952944    2.24775816008802    2.30750372400146
H           0.27833427510287    1.40523218502588    1.02406953768509
O           2.88359000529814    1.52824918740670   -1.55521774720892
H           3.66813806056091    1.21839032245388   -2.01273323668063
H           2.93046711048763    1.14763246522851   -0.63630582779586
O          -2.19521859240595   -2.66556960756030   -0.46713004986764
H          -1.75982959899841   -3.41287303221537   -0.87978690501148
H          -1.94706667570306   -1.88204212280445   -1.01287659634418
O          -2.59767291264045    0.90093734832294    0.50044368479164
H          -3.07317154427475    0.49147919502967   -0.22847392684850
H          -1.79409664324670    1.28297605649775    0.08064008082305
N          -1.18848802697932   -1.13464681242305    1.43932292251578
H          -1.79762615976174   -0.28263549795995    1.26421163327062
H          -1.67596995155215   -1.94948161350821    1.00444123422447
H          -0.31573374246857   -1.00546619928919    0.84287693895997
H          -0.96162865155347   -1.25005544095330    2.42117016711076
