    26
        -50.45757818  Gyration_radius:  2.55682645329 Dipole_moment: 3.354
 S           0.54599656952151   -0.22579856554250    0.01650825981106
O          -0.63169106549620   -1.05131143060981   -0.45850522101877
O          -0.04509671278278    0.94507258266175    0.80629994491888
O           1.34663301680816   -1.04693753918816    0.89211477770672
O           1.25243217746517    0.33177663426938   -1.10820129764288
O          -0.73334067888037   -2.39586470663051    1.97595340595712
H          -1.30482381278228   -2.46279860533056    1.20633931865463
H           0.13989360519116   -2.15307944631706    1.62330709997432
O           0.65633290162506   -0.49786979130695   -3.59317432053027
H           1.03069683930444   -0.15034564234047   -2.75993611022935
H           1.03528470077746   -1.36916067036673   -3.71891966832708
O           1.88673160020696   -0.10142438973942    3.37635855811783
H           1.85266130237984   -0.53890521448910    2.50628054458487
H           2.55950482697958    0.57781838916508    3.31544311363337
O          -1.65690889177475    0.01922659265159   -2.40213554452783
H          -1.16175203513572   -0.57873518683807   -1.34031218943693
H          -1.47084539696347    0.98903902153114   -2.18406989822688
H          -0.97702572466160   -0.21678588594707   -3.07498084434957
O          -0.77536660158933    0.05249588566679    3.01595780322916
H           0.09648850489277    0.06612598801260    3.45960668183531
H          -0.40692515743908    0.60996156581261    1.73901105709688
H          -0.93625935402114   -0.89791862194000    2.80760493285968
N          -0.74402634654241    2.34758954807219   -1.64510197606548
H           0.15517718930049    1.92138819077253   -1.43178828311008
H          -1.12586220561551    2.68485637787087   -0.77053831772799
H          -0.58790928077397    3.14158491010364   -2.25312181718679
