    26
        -50.47441757  Gyration_radius:  2.50856078211 Dipole_moment: 3.662
 S           0.16230097402046    0.75436881481804   -0.79965638289148
O           1.35814374674440   -0.03771258551362   -0.55033165576184
O          -0.98990917432188   -0.12344445102430   -1.07195231610398
O          -0.14323725371403    1.64301500706110    0.31056713786277
O           0.39488769895079    1.62592380951950   -2.05107286825718
H           0.94547090161342    1.03304186514144   -2.64729926261634
O          -0.58149123687535   -1.54454196637496   -3.26996659979954
H          -0.79485540905563   -1.07769018036918   -2.43344939612081
H          -1.23693504902145   -1.25997877115346   -3.90923117596842
O          -1.80887730571778    1.26375703384209    2.39146962644376
H          -1.41150658349481    1.62042713844872    1.57345979339484
H          -1.13087521506873    1.39464730456888    3.06331365309430
O           1.75131079918166   -0.21057920982665   -3.20143181539261
H           2.01696007434748   -0.43229371314649   -2.29569057388589
H           1.02940776930474   -0.83689539356210   -3.41988875472857
O           1.13526645220698    1.27791168583326    2.60259631296396
H           0.74017513405684    1.47344312780220    1.72283714569711
H           1.97438409567296    1.73984200402531    2.62332112806455
O           1.10839514841661   -1.30186016976841    1.76136196006438
H           1.24016397109508   -0.51374582611900    2.32236398742584
H           1.35024227473012   -0.98471802034651    0.86367965280180
N          -1.44930246496690   -1.12918297148218    1.29531071274638
H          -0.43855569505863   -1.36095430538222    1.57819922906627
H          -2.07774693665480   -1.91774748338729    1.40115314816393
H          -1.75680900952991   -0.28785315628179    1.85243383780024
H          -1.38700770685528   -0.80717956731058    0.28790347593703
