    26
        -50.46893124  Gyration_radius:  2.43920610064 Dipole_moment: 1.761
 S           0.08928636807184   -0.82179640310963   -1.66680303736935
O          -0.89365731988449   -1.09644268138882   -0.62110819921625
O          -0.01564122654563    0.53829192813349   -2.15609332380348
O           1.42155068552206   -1.19718988731000   -1.24689914307843
O          -0.29051296486278   -1.73732445591550   -2.90109225249353
H          -0.72340769885322   -1.10939645457210   -3.46966822829703
O           1.29114577804238   -2.73564254718273    0.99464292396308
H           1.78130500770554   -3.54793673220856    0.86317894138010
H           1.35688569510665   -2.24968848046644    0.15338910179143
O           2.32324244319013    0.60599339198473    0.54369630229610
H           1.89911179715539    1.42167491201581    0.23033770892088
H           2.24340202536915   -0.03278608907432   -0.18821351933703
O           0.48328671751884    2.42255792239354   -0.41774138388445
H           0.24075400420830    1.73401023802324   -1.08522606771229
H           0.52852072331512    3.24961486178306   -0.89991277940055
O          -2.87193779549468    0.59955989772910   -0.11582613805611
H          -2.15683491635938   -0.00686555669575   -0.40290558320602
H          -3.61234837495038    0.04199652759739    0.12786663149419
O          -1.26126773263142    1.85385629895826    1.65734899402283
H          -0.64785374847997    2.27215259982496    1.02865527951504
H          -1.99406428868600    1.53050381330612    1.09480225165570
N           0.15618159602733   -0.35548874591100    1.72943618282889
H           1.12073884027475   -0.02897161502909    1.43603207681925
H          -0.43731076609850    0.50116637334670    1.93770425655131
H          -0.25839003729419   -0.82142807651541    0.89077474747112
H           0.22781516863214   -1.03042105971855    2.48362425714652
