    26
        -50.45757818  Gyration_radius:  2.5568009213 Dipole_moment: 3.354
 S          -0.52892102324821   -0.19710929013806   -0.17527964879567
O           0.19768252767647    1.09780619350644   -0.54864425859808
O           0.53670867336187   -1.14843924891002    0.32821221857988
O          -1.45418186948739    0.12248162439969    0.88142982105818
O          -1.12709299835373   -0.77526323857687   -1.35422115123787
O          -1.16326031806679    0.71534966306270   -3.61999199180367
H          -1.84073730674179    1.38840001252498   -3.54314834478826
H          -1.30143896373919    0.09504752702671   -2.88125310961291
O           1.14319767735295   -1.92373824851030   -2.27487760654997
H           1.54775329674247   -2.17952980190769   -1.44163298272194
H           0.21419652113041   -1.73426152272478   -2.05835647370587
O          -1.36493914031011   -1.25741541365123    3.18498422285296
H          -1.75212403914772   -2.12105134047297    3.03402663669972
H          -1.56646334749307   -0.72098826429641    2.39324665078538
O           1.36903880216117    0.69105772631249   -2.71080847825333
H           0.74416289276064    0.96476642456209   -1.44134986696302
H           1.49450174505780   -0.28693985737895   -2.69269705073039
H           0.60477381876382    0.83325328100119   -3.30483640890682
O           1.13595312962963   -0.57142063040510    2.62664355376236
H           0.33638014653303   -0.92629649643493    3.07988589547663
H           0.87231568956218   -0.90171139022797    1.38099441678812
H           0.98782816727494    0.42854676468755    2.59858361236174
N           0.37108526626741    1.89758740764401    2.24337753335083
H           0.91855894986517    2.40626544526085    1.56078972860990
H           0.08681976976466    2.54239518290841    2.96994715289805
H          -0.46179803731903    1.56120750074766    1.76497591944444
