    26
        -50.46379214  Gyration_radius:  2.52747017592 Dipole_moment: 3.679
 S          -0.21257025112812   -0.71080506211734   -0.15133383621410
O           1.01643887658075    0.13643700170548   -0.18982391968356
O          -0.57240517631725   -1.12225347204867   -1.48465002985886
O          -0.07718451945788   -1.77397420075181    0.81130643845205
O          -1.34236824994423    0.26555400564463    0.31025695696668
O          -1.58721552755909   -2.00368989816507    2.98845110946689
H          -1.00762015704882   -2.04973286987473    2.19934241348040
H          -2.40152661589256   -2.44644420486865    2.74637124378714
O           2.18250383599803   -0.19984076116808   -2.61939576277717
H           1.87456203384217   -0.12193150770174   -1.69657558452703
H           2.30487588448382   -1.13791976757204   -2.77440219775949
O           1.54424570326506   -0.09128620146563    2.42698509840147
H           1.50718931145463    0.01988127659091    1.45961985603120
H           1.46356994637302   -1.03886600932486    2.56909034117888
O          -0.25001217704561    0.58636156082146   -3.44174961975799
H          -0.27321035653325    1.59669996048972   -2.35161639994912
H           0.70928492653587    0.39678694101410   -3.50206074715372
H          -0.57458454762321   -0.15802515587158   -2.88240831964019
O          -1.00152157814501    0.60867632568562    2.78112259766450
H          -1.24309976501003    0.43162730651876    1.32521100490342
H          -1.35117608048552   -0.24353420760808    3.11241434201103
H          -0.02216813449909    0.50971030378383    2.83246436426361
N          -0.19607975168958    2.07938622119414   -1.36158391621275
H          -1.10086349796800    2.03762369207029   -0.89078154589225
H           0.17417698949624    3.02375076428166   -1.39839341999308
H           0.43675887831280    1.40580795872932   -0.81786045719530
