    26
        -50.46810370  Gyration_radius:  2.48695372057 Dipole_moment: 2.627
 S          -0.17704828629092   -0.39601245353481   -1.55889009172741
O          -1.34906583049324   -0.29401086240512   -0.69200938277286
O           0.89372171484186    0.48450173202642   -1.07351642581365
O           0.27551759533411   -1.76797699320596   -1.69804188313322
O          -0.57997673956753    0.10146704680741   -2.97347884113649
H          -0.80347157581432    1.05510480290871   -2.85289983521475
O           0.64229233545173    1.49213098309403    2.59167559479607
H           1.08475344474533    2.26868219300983    2.93709122803379
H           0.09444392454655    1.79626095838285    1.83908126608517
O           2.10587467717833   -0.29716218387599    1.18349152030450
H           1.63760049779758    0.28140246727907    1.82218083971051
H           1.84815030889250    0.04256001282495    0.30198613000513
O          -0.92832033822783    2.65638797977354   -2.40251221581761
H          -0.09871598742529    3.06954322778325   -2.65285772377700
H          -0.95380269379677    2.66309476441256   -1.42420833386355
O          -1.73275056132599   -1.99979860311177    1.25649054983962
H          -2.46870487669340   -2.55363930342929    0.99162155006458
H          -1.65671065810054   -1.30587409574241    0.55624921750836
O          -0.63139742975563    2.08779811950331    0.25330041606231
H           0.08552753015345    1.57959486892380   -0.20252007918129
H          -1.35306229481973    1.44191379518278    0.25640426830636
N           0.82487918402183   -2.51519360864229    0.72878022821720
H           1.41234994322970   -1.67973813659095    1.06401656528112
H          -0.13185809488764   -2.46353991036152    1.15071903630748
H           0.67832116513129   -2.34559004326510   -0.31219347480235
H           1.28145304588513   -3.40190672773421    0.91003986674125
