    26
        -50.46912884  Gyration_radius:  2.50567101915 Dipole_moment: 1.812
 S          -0.36396088010176    1.33410451926125   -1.47940409071048
O          -1.11681914508886    0.26712559007879   -2.11057129232075
O          -1.06837952474537    1.94005401453315   -0.36237330500838
O           0.97715966135598    0.90241983179183   -1.11596412065559
O          -0.17788430209865    2.45766338747467   -2.58176329424273
H          -0.99481314436951    2.42198599989058   -3.06927798534676
O          -1.38403668631496   -1.38995954372710    1.19445688356591
H          -2.14212288985894   -1.01162251700883    0.68904977297896
H          -1.02880777475451   -0.64592507228962    1.71027170701870
O          -3.05810732805066    0.00537598228266   -0.33406323922571
H          -2.91872540424051    0.89513143828646    0.00737961241376
H          -2.47729527470841   -0.02830159854782   -1.11958704991550
O           2.77402738977745   -1.99344154626445    0.78154051144738
H           2.65956731143575   -1.06023454713688    1.10071937619679
H           3.65058264446727   -2.03351103030137    0.39700195475237
O          -0.36484638579197    1.03185022890477    1.99090826460215
H          -0.65157176855365    1.67259661420167    2.64349374290997
H          -0.59464773462691    1.41564867380975    1.10881108344215
O           2.26868897494958    0.55329453289971    1.26245302189288
H           1.45432507664647    0.67006184670202    1.77681096617615
H           2.01642271311248    0.82546840503744    0.36436121991057
N           0.51105449662919   -1.66569122083902   -0.58851084427885
H           0.67831721378304   -0.68255725531517   -0.91147613830297
H           0.24300619884354   -2.24521072639036   -1.37652861967945
H           1.39116206906350   -1.99782015219341   -0.11884113062117
H          -0.28229552676379   -1.63850587511578    0.14110298299603
