    26
        -50.46806886  Gyration_radius:  2.61671044368 Dipole_moment: 1.397
 S          -1.85800127255988    0.00553759849155   -0.48401534586603
O          -1.87924715398102   -0.10627233747586    0.96214142537606
O          -1.59063840519729    1.34485517599085   -0.95841570738872
O          -0.95468225655020   -0.98153235868827   -1.07560945513262
O          -3.31603367290624   -0.35200568559324   -0.99063947714655
H          -3.35249522649639    0.13096484077270   -1.80986161012014
O           3.09778446822943   -1.31925043540741   -1.32160560666269
H           2.37302672203680   -1.52688877119802   -1.95306431644955
H           3.67742154003223   -0.70513544336625   -1.77473714372998
O           0.64376106413189    2.22274559520403    0.20210298350289
H           0.24713952842139    2.36736506468371    1.08031961074390
H          -0.12770091446448    2.06612561401632   -0.37981475837967
O           0.91940187593710   -1.73716959139482   -2.85423181124796
H           0.70529150569794   -2.65324878159730   -3.03984010672580
H           0.18955794541657   -1.40217703776053   -2.29900765532443
O          -1.00348936824691    1.97303522856395    2.36465634311444
H          -1.68960215014243    2.63152589419208    2.47944782987536
H          -1.41040511857041    1.24264113180110    1.84840238758961
O           0.08157627177749   -0.76863204601888    2.76817631352302
H           0.05273660123562    0.08113981967255    3.21965239679325
H          -0.74373172826121   -0.80128017397340    2.25519780925546
N           1.21453465614412   -0.35173870881156    0.36235153280121
H           1.06759646775256   -0.63569938168333    1.35349814300284
H           0.39627760181075   -0.69978654763151   -0.18492125014786
H           1.17832297961200    0.70606786329456    0.29946310214573
H           2.08159805917681   -0.73118650607471   -0.06964565340013
