    26
        -50.46944686  Gyration_radius:  2.53903659909 Dipole_moment: 4.910
 S          -1.00391017997112   -0.96576749186483    0.84977966119480
O          -0.67514302992013    0.39534792495367    1.30850362122175
O          -0.67084425693000   -1.09021496130188   -0.57601679378871
O          -0.35538548931359   -1.97936605204177    1.63941080201683
O          -2.54063821552289   -1.14007420639625    0.98244441072503
H          -2.90308148529606   -0.25740270711199    0.71218235063459
O           0.76354185557978    1.83830415971194   -2.45264272164355
H          -0.16302951613146    1.55097538751936   -2.33739815915349
H           0.86983647080281    2.05953176823746   -3.37882764936204
O          -1.69467069371835    0.67417465948769   -2.13897105352056
H          -1.30508110131186   -0.02922641988076   -1.54611039032961
H          -2.14205399914967    0.20199714518959   -2.84331374500662
O           2.06903791320405   -1.87466232801931    2.62640712275027
H           2.50405608704919   -2.65366763643289    2.27463612022441
H           1.11552911753532   -1.97967851987409    2.39301817636958
O           1.80941515368616   -0.34749122433082   -1.22917971586412
H           1.58170060885062    0.45723128865076   -1.73717427918306
H           0.94801495863803   -0.78894855549295   -1.07066423382193
O          -2.92776338441066    1.32133023746183    0.23766171478500
H          -2.66497220481305    1.31881865843760   -0.69827270934898
H          -2.09745264909104    1.40018607685097    0.73645610057369
N           1.92705911315320    0.40239995078734    1.26237948607041
H           2.05892320373592    0.14381238112539    0.22938324647093
H           2.43513135100449    1.23950162554059    1.52467025809015
H           0.87775200480751    0.52669114452597    1.37305507661311
H           2.18402834759126   -0.42380229550794    1.85858330339119
