    26
        -50.47322676  Gyration_radius:  2.41293600538 Dipole_moment: 1.508
 S           0.02281040855203    1.20446490890758    1.38006676091297
O          -1.04691715235916    0.28998175109261    1.75321335477161
O           1.31901088643316    0.53684569602196    1.38328390975394
O          -0.24940178621056    1.91653479107106    0.15270706687924
O           0.09806697026866    2.29401401440010    2.52199653201158
H           0.37595664853992    1.75915246482677    3.25683124890144
O           1.44588694363630   -1.88695253539462    0.21112518423456
H           1.55486617588963   -1.08550792599730    0.75800379160285
H           0.61419738542989   -2.28912488520371    0.54156328835210
O          -2.82021040944807   -0.51674420025059   -0.05590779583807
H          -3.66274740480533   -0.07849724376073    0.07101099260250
H          -2.21760673423440   -0.15618767999934    0.63225740646087
O          -0.96882485640051   -2.38646755646694    1.24706167640864
H          -1.72358522772010   -2.38006884222211    0.65036032081460
H          -0.95876876403960   -1.49673699824572    1.64218291094423
O           2.25229596336173    1.63943524152626   -0.82382579228459
H           2.16679697105861    1.23321008345552    0.06271076654386
H           1.48969915603432    2.23183350831713   -0.85461416077810
O          -1.16541189569909    0.51430757672986   -1.92833826843015
H          -0.89587959953704    1.18127374207700   -1.26505429110680
H          -1.85249209019401   -0.00247041742379   -1.46675388735077
N           1.25134626671841   -0.52225813494633   -2.00640977058261
H           1.61793956305116   -0.91037553929869   -2.86753185499899
H           1.32856164577070   -1.21114944429077   -1.18959848533737
H           1.78607993454758    0.33813161927500   -1.70252008039132
H           0.23833099136948   -0.21664401415650   -2.10382082410698
