    26
        -50.46402036  Gyration_radius:  2.52315656146 Dipole_moment: 1.269
 S           0.60111078778342   -1.08021264143220   -1.48910756146891
O          -0.34398476496180   -0.03403729742318   -1.84586855704642
O           1.98389291941146   -0.70319955901446   -1.64985073991995
O           0.28997943192161   -1.63744912387974   -0.17757498388217
O           0.36534265700451   -2.26487765845787   -2.52652937607132
H           1.25701887250011   -2.44700548058492   -2.80393067866821
O           1.71154131642778    0.96223667975652    0.43242982452799
H           1.96878132180704    0.27645261392696   -0.20528896062334
H           1.38897939350963    1.69872618232887   -0.11444547553164
O           1.01457710112896    0.90533532194057    3.01682920887057
H           1.40391371655422    1.04016718356578    2.12690465756396
H           1.60350866993017    0.30257394459076    3.47340031954521
O           0.65117999609565    2.42105351745280   -1.63087420080618
H           0.30939097127939    1.52723091885743   -1.84745261399583
H           1.33487949016135    2.60719235899221   -2.27586498541622
O          -2.04811141491252   -2.57106549516834    0.93656666417518
H          -2.60055484072851   -3.07869381729391    0.34147148016419
H          -1.19779701875615   -2.44837027260643    0.48120850646718
O          -1.87895041322533    1.59915468835702   -0.33713148025444
H          -1.34227250799891    2.38575986681845   -0.47822566722611
H          -1.55043125790827    0.95967946997027   -0.99708934878509
N          -0.99968064232300   -0.07374757097347    1.54311387795678
H          -1.43776294470769    0.68699083472323    0.96442078543287
H          -1.70660447627564   -0.73194162640753    1.87448264350054
H          -0.38075570864428   -0.61801239217281    0.88787396190175
H          -0.39719063480592    0.31605936443543    2.30053270994818
