    26
        -50.46597452  Gyration_radius:  2.51660230137 Dipole_moment: 6.360
 S          -0.30196663826856   -0.31068515666320   -2.03345727961411
O           0.76447268261220   -0.68465549071958   -1.09946600231139
O          -1.60521705097302   -0.54983857164797   -1.40275520441488
O          -0.17153294014150    0.99941119238214   -2.58735717740912
O          -0.18999824199910   -1.35449381680779   -3.21631340399398
H          -0.01400033590459   -2.17270154720647   -2.76237816697650
O           2.62522084324262    0.87034290939015    0.26866062240658
H           2.25949402878976    0.20183266520406   -0.32841693784713
H           2.06623579635531    1.65466677144396    0.09397200463041
O           2.09037432647939   -0.02964617696978    2.67383811197037
H           2.39934979602299    0.40424054956930    1.83079581946936
H           2.77321859208210   -0.65676435234506    2.91397624765280
O           0.60479983863392    2.49395038145280   -0.47168617467701
H           0.45102139241186    2.11322760550511   -1.35376863205109
H          -0.22485385097669    2.35134814048117    0.00311139244170
O          -1.86377025469159   -2.40680723802673    0.47232113502159
H          -1.81211700149875   -1.78291037556953   -0.28617560282561
H          -2.77960322627106   -2.68194616461622    0.52951471192130
O          -1.86161759496216    1.39505475418466    0.33973693407218
H          -1.85112346901833    0.72217304769312   -0.38053909868826
H          -2.59608563489041    1.98149896736140    0.15319422761999
N          -0.15693024646260   -0.51491143213816    1.36061972330406
H          -0.75628127582159    0.31776559485053    1.37673055453397
H          -0.74323041657402   -1.35579718297339    1.46601412826822
H           0.26246748255222   -0.57613714978376    0.38932739471721
H           0.63167340926565   -0.42821792404938    2.05050067277409
