    26
        -50.47128552  Gyration_radius:  2.43368235197 Dipole_moment: 2.290
 S          -0.05672222762550   -0.44676678537720   -1.80392241438172
O           0.60013547324202   -1.61069569354430   -1.25208753478636
O          -1.40061159239281   -0.23538014779284   -1.30564710225804
O           0.76225667523404    0.75801067699019   -1.66277986746917
O          -0.19985054576066   -0.71139932872537   -3.35443120733503
H           0.64365135223277   -1.10151800195520   -3.55485071892482
O           0.20523917239368   -1.58214112082947    1.42231529585200
H          -0.76227314558429   -1.55853289018622    1.48453581541680
H           0.39693791381825   -1.69999773765818    0.47420152656399
O          -2.48745878182242   -1.40402080626152    0.83615019395070
H          -2.13618819755538   -1.08000477668100   -0.01912568199574
H          -2.95277526596004   -2.21998543718807    0.64801194512391
O          -2.32324403720658    1.47548988369199    0.58428480689358
H          -2.16815077979485    1.01128425154225   -0.25862661943926
H          -2.61892336058164    0.78254339842381    1.18541936703035
O           2.89141397403971   -0.21951817690878   -0.32740644818590
H           2.68019300762254   -1.15709660876982   -0.36710594386573
H           2.22507291463347    0.20326391135348   -0.89855506583385
O           1.73926123053240    0.50110194462435    2.00006110167687
H           1.17317894909020   -0.30478566770966    2.01197074542496
H           2.40347686939693    0.29996741899685    1.30663685174867
N           0.27342783261756    2.08796707983193    0.57910787483986
H           0.52838768380886    3.06892542538696    0.60880936683445
H          -0.75407180672673    1.95812649820820    0.75548390720057
H           0.46758294321569    1.68329935985099   -0.37035399852488
H           0.87005373912413    1.50186334068240    1.27790380444770
