    26
        -50.47026050  Gyration_radius:  2.45476843547 Dipole_moment: 3.274
 S           0.16143928528954    1.75989531483597    0.41606252285101
O           0.33421400039126    1.00797441193057   -0.82733691129625
O          -0.71163455908231    1.05585886717092    1.33453848046039
O           1.41872376260569    2.17721819674433    0.98776026035677
O          -0.60416229443221    3.09688523936166    0.02506562169901
H           0.08307422344790    3.75388104898933   -0.02332141170430
O           1.78009482406598   -1.14102863698583   -0.06133131238696
H           1.42499615975669   -0.31171659760570   -0.43347830909951
H           2.27911585447133   -0.85646372336139    0.73073371123217
O          -2.37636340140333    0.91633065337409   -0.90952496836608
H          -2.56510262804206    1.28516577520577   -0.04333593138056
H          -1.42171253828200    1.04298452322464   -1.02591485217825
O          -2.16988415007704   -1.76276850625031   -1.15418429749976
H          -1.46862552632610   -1.75045351436029   -1.83801789465458
H          -2.50931039375015   -0.84415214018531   -1.14973161057960
O           0.09333907059473   -1.23266124837817   -2.52710907815480
H           0.87072978217189   -1.68025583253458   -2.18183177612569
H           0.14135010517830   -0.32961880024899   -2.18296715886910
O           2.66367156559545    0.12813573922167    2.12057823454406
H           3.55278988476774    0.41230602446546    2.33992520939467
H           2.19494342484623    0.93077013077686    1.80483540114986
N          -0.64065001617180   -1.55788145872805    0.94214116022951
H           0.34853332299568   -1.62700966871683    0.57894459368157
H          -1.32561600627053   -1.75085778874390    0.12697420557638
H          -0.79737198630861   -2.17291342159796    1.73237517833717
H          -0.75658177607261   -0.54962458751951    1.21815093279215
