    26
        -50.47172723  Gyration_radius:  2.5246554369 Dipole_moment: 1.021
 S           0.08603206712283   -0.63775725819674   -1.89344348615277
O          -1.33714637423835   -0.56917528513145   -1.59550230463917
O           0.57275550085721    0.54837217321991   -2.56701468834145
O           0.85758634745120   -0.98949547099299   -0.71188465944509
O           0.28595404031780   -1.82495854939804   -2.92142001759487
H           0.20690399734786   -1.37009786081626   -3.75298662383346
O           2.35734869293768    0.74458023081365    0.78699799109950
H           2.04672316246603    0.01981072683928    0.21957017860160
H           1.94624332845406    1.53535017902217    0.40556249675707
O           1.37210871679777    0.04568798345115    3.15840646993038
H           1.81985814688878    0.40482856800834    2.35264071259520
H           2.00864852610277   -0.53456495661038    3.57732999607279
O           0.81332972906071    2.43779274434554   -0.78894285888061
H           0.77116434066094    1.74874062815279   -1.49776283082824
H           1.02000165401409    3.26321392166884   -1.23055062838428
O          -2.40075858365705   -2.19726887297511    0.26469933674272
H          -3.30687133974780   -2.39586089200534    0.02672791223582
H          -2.03497652219832   -1.67320520726293   -0.47697803989263
O          -1.58207440768439    1.48021443466022    0.14177477757583
H          -0.80517017266502    2.02196095906505   -0.07910533006751
H          -1.68532510674773    0.86079484728119   -0.60413447186735
N          -0.60860838508247   -0.59374993504849    1.47366666936496
H          -1.06294643652947    0.31088509180637    1.17305473297753
H          -1.33282372632841   -1.31502036598675    1.55604797054661
H           0.00394567796896   -0.86645496102853    0.66712329168765
H          -0.01190288357346   -0.45462289287983    2.31612342374224
