    26
        -50.47322634  Gyration_radius:  2.41286863093 Dipole_moment: 1.521
 S          -0.45401047518962   -1.05923955639047   -1.42357222334690
O           0.38029894765954   -0.03111742513687   -2.02948294611829
O           0.31148710007548   -1.89185379491093   -0.50363865482156
O          -1.66511609222574   -0.52955554893106   -0.84041455955826
O          -0.90495330635183   -2.01560262215681   -2.59769597068545
H          -0.06558850223949   -2.36880473651691   -2.86963661706925
O           2.53869570710644    1.06150320604163   -0.77465105582289
H           1.92571950715661    0.56601644111292   -1.34608334099683
H           2.17038367565118    1.94942485249240   -0.73362332537550
O           1.95938662413575   -0.62903126608844    1.21535150549773
H           2.35190975297107    0.04557176014683    0.62087672213418
H           1.50541732932037   -1.24378028526424    0.60773432581304
O           0.06023880147788    2.52260748416681   -1.36223310519976
H           0.12533746547688    1.59187111567679   -1.67221415477218
H          -0.38595790730805    3.00548491467316   -2.05919005227863
O          -1.52153352539517   -2.05073699565502    1.38611513462160
H          -2.16206849754823   -1.61634629925943    0.80784623996986
H          -0.77993629766388   -2.23765654577704    0.77493982754364
O          -1.46206991667600    1.64784966454269    0.69306543832125
H          -0.89024958963460    2.18414106220250    0.11201351101946
H          -1.72468701387861    0.89550652633995    0.12517856836446
N          -0.26021711341729    0.05589146019443    2.40829032801665
H          -0.70728266054081    0.82675175012454    1.82943855907180
H          -0.81797759534945   -0.81960958694993    2.20574235936169
H           0.72297766663745   -0.13642484563611    2.02887966673584
H          -0.25020411424283    0.27713925095613    3.39696382957254
