    26
        -50.46641756  Gyration_radius:  2.48306753838 Dipole_moment: 2.488
 S           0.53108074468530   -0.09984457930050   -1.87732772684913
O          -0.81333356167562   -0.64073329164351   -1.81410094050990
O           0.60150175473237    1.33331569369466   -1.65615889144689
O           1.44786616320817   -0.81963413826743   -1.00540050919440
O           1.02542487084603   -0.34893631900198   -3.36290758390360
H           1.87403304569510    0.08261338898309   -3.39066199413405
O           2.19137599163198   -0.11800695586103    2.60732997591007
H           1.96172464763541    0.68309759189478    2.08593462481243
H           3.03486585923216   -0.41580173988214    2.26311059407384
O           1.23750610779044    1.79505053940830    0.95183264442450
H           0.33620708211460    1.93501783064591    1.26532419693633
H           1.15718824777752    1.65964453263176   -0.00975246805462
O          -1.52573735426782    1.16536869782891    1.35889164248083
H          -1.76613277909037    1.39430685548064    0.41638247437382
H          -2.34634323827842    1.17120315623443    1.85318663504459
O          -1.48850939966440   -2.66950254508077   -0.16969134709172
H          -1.66350190507742   -3.45805277087451   -0.68393182497242
H          -1.29985579089425   -1.96149832090347   -0.81866363909000
O          -1.99491328083506    1.64042016959196   -1.16531852455315
H          -1.94004710857183    0.72866500271784   -1.50044067107844
H          -1.12533989134697    1.99461771360865   -1.41283600739280
N           0.10166809988470   -1.02716895391592    1.23678457368134
H           0.79934419997606   -0.95608752167443    2.00707887560522
H          -0.55730026198628   -0.22106928966911    1.30383890571498
H           0.65414398933181   -0.94605805800166    0.33594627126653
H          -0.43291623285060   -1.90092668864459    1.18155072395088
