    26
        -50.46627038  Gyration_radius:  2.45471681888 Dipole_moment: 2.223
 S           1.07734570802992   -0.93254153582975   -1.23007663682349
O           2.01648468288181    0.16431471564918   -1.16860940296903
O           0.89716155385826   -1.57868417039988    0.06484804925056
O          -0.20363732180610   -0.58767919993174   -1.82216092922720
O           1.72730754255745   -2.00882903099913   -2.19283638330032
H           2.65161338907845   -1.86333483428224   -2.02462654082281
O           1.84965635116553    1.56667867507261    1.04034639913079
H           1.92909480870836    1.03240761465985    0.21408932452009
H           2.47717090169691    2.28547733091929    0.94858309049975
O           1.15727487604204   -0.64343959319004    2.72723224611303
H           1.33419985947269   -1.22444137488154    1.97841178709621
H           1.46675668165158    0.22436125427304    2.43929512584993
O          -1.00184809084717    1.94935589966347   -1.70458028696974
H          -1.87475301255368    1.90394696599066   -2.09918188858957
H          -0.60250974805615    1.06536722409093   -1.83229047239911
O          -2.59936680469449   -1.36446228267051   -0.94085035351619
H          -2.79558696431720   -2.23337136186709   -1.29295163688365
H          -1.75595646933244   -1.08663623788643   -1.35875427777638
O          -0.82430542933638    1.99138806723995    0.96562157063389
H           0.14283666713472    1.99265421491693    1.10523200903774
H          -0.94118492130664    2.13071961151828    0.00053672187960
N          -1.24951165099816   -0.56619998412127    1.25375330129844
H          -1.14801661154808    0.50690044627755    1.19220971594243
H          -2.04857408289124   -0.88560732585578    0.68073015819700
H          -0.38277566875497   -0.98716519862708    0.82771773012868
H          -1.29887622581226   -0.85117988957444    2.22831159984268
