    26
        -50.46838587  Gyration_radius:  2.46197308476 Dipole_moment: 4.931
 S           0.67658487786027   -1.36606994087118   -1.54442684552571
O           2.02425426618193   -0.95036385016171   -1.82587281928042
O           0.53978321493988   -2.17520780485701   -0.34426066468132
O          -0.29649753852754   -0.27600635821567   -1.56396706270594
O           0.24273870443583   -2.30050972278528   -2.75907840397188
H           1.06140892262614   -2.74310414284785   -2.95661093891631
O           2.15853780740302    0.49664188268115    0.44116839096302
H           2.26824443928555   -0.15637934982029   -0.26767938985641
H           1.83121628687324    1.29163253141348   -0.00887429917702
O           0.52592659713298    0.65809253091583    2.54831155096427
H          -0.01436779358261    1.38598262406376    2.16185762439644
H           1.28940336362434    0.57290007351725    1.93793033655433
O           0.68995439600308    2.15211627973760   -1.23619221295367
H           0.31860012166878    1.26567111096991   -1.44237788286837
H           1.15508040925552    2.43966429726393   -2.02280086302312
O          -2.41692086057310    0.03464476490205   -0.08675574973943
H          -3.18954074061527    0.06128214895575   -0.65239690502035
H          -1.63971847532634   -0.10040201584757   -0.68598859692223
O          -0.99856680785830    2.23436533872492    1.01660962276394
H          -0.41354923154740    2.44681624688681    0.27624950858460
H          -1.63259274367772    1.58990689556156    0.66930805031247
N          -0.85576649846497   -1.33274161311620    1.68878850445424
H          -1.68827054335400   -0.91567413063695    1.24913647394498
H          -0.26152153069100   -1.72707569698095    0.90097164533125
H          -0.27156112196977   -0.52839720085800    2.15488662043475
H          -1.10285952110251   -2.05778490859563    2.35206429593754
