    26
        -50.47201775  Gyration_radius:  2.51755161609 Dipole_moment: 1.420
 S           0.82031615921576    0.52855242721009   -1.74564107325019
O           0.30661188798787   -0.80565510363652   -1.97338709540424
O          -0.06686001989925    1.59060391918529   -2.16862486430977
O           1.25324644980233    0.70882135527768   -0.35973409824814
O           2.12214932914394    0.65412699953276   -2.63615085286551
H           2.27764943384471    1.59245459954871   -2.62460060618252
O           1.48393036400903   -2.83296316393241   -0.65102829385033
H           1.11918093840931   -2.11572355730717   -1.20767206017955
H           1.60148194701396   -3.58524880172057   -1.23191728323521
O          -0.06261799348026    0.13535456930192    3.40278962188975
H           0.60473501378979    0.40290656599710    4.03547702395456
H          -0.20116754134860    0.91253882193582    2.80678667645652
O          -2.07252724499280    1.64968650859896   -0.50770705196945
H          -1.32772484602157    1.67980398604033   -1.15876137689182
H          -2.77096918061393    2.19296719030285   -0.87665261451826
O          -1.90916559083224   -1.08269336790961   -0.44632641498742
H          -2.19055572781471   -0.15330568795638   -0.38188630040243
H          -1.28276284987045   -1.10715874587745   -1.19141098199329
O          -0.21454715328150    2.02202198272368    1.53086301097289
H           0.45147890570124    1.71094954158546    0.89406480579617
H          -1.04353088090937    2.01374188718882    1.02914172508585
N           0.22400089586978   -1.24311196688010    1.12263933689671
H          -0.73213103986577   -1.29502680337840    0.67679957013310
H           0.73305245164376   -0.49289340343005    0.59304231388177
H           0.15525377026334   -0.95944969491654    2.12221386481691
H           0.72147253223868   -2.12130002748539    0.94768299838546
