    26
        -50.47530412  Gyration_radius:  2.42322320194 Dipole_moment: 2.966
 S          -1.26255212815137    0.59657928694887    1.02142287614184
O           0.02681668925828    0.05944030599908    1.45028134224246
O          -1.11421540775883    1.25917616662922   -0.28926147088816
O          -2.29827437962357   -0.39608585154333    1.01573319911791
O          -1.65011232437961    1.72123925310149    2.03720318589701
H          -0.95748742178884    2.38807465045561    1.90096769868604
O           0.15758627259279    3.26842459107534    0.73459539847796
H          -0.25649064190865    2.58366077400069    0.16199898532013
H          -0.18628991890314    4.11572874109349    0.44495492186259
O           2.03202753048023   -1.00027113487757   -1.35841433342369
H           2.25557771386557   -0.17113321787332   -0.88886619295634
H           1.84756467537692   -1.64257409963394   -0.65165510635618
O          -1.59047603473074   -2.47614783830983   -0.49966923049230
H          -0.78878545511001   -2.75038660262033   -0.02448602463635
H          -2.02862555171618   -1.82968897145711    0.09260281597780
O           0.85661987159161   -2.32997308707650    0.77482788106726
H           1.25274998960479   -2.74588008687922    1.54184518568840
H           0.53776233212211   -1.44609839720297    1.07987360258055
O           2.14526169791905    1.15176200211382    0.25837056981328
H           1.97354268803308    2.09698661456934    0.27118189393869
H           1.42393047021774    0.76043508335967    0.78995587447257
N          -0.47961739396012   -0.63874509989700   -2.00737800185203
H           0.57612947854475   -0.77781676285811   -1.87938254404836
H          -0.73382948032826   -0.52326775979430   -2.98173384371862
H          -0.97773247022583   -1.47015462320384   -1.56013929298870
H          -0.76108076103181    0.19671606388587   -1.43482939992436
