    26
        -50.47000651  Gyration_radius:  2.46301375763 Dipole_moment: 2.582
 S          -1.26088923973505   -1.82127270432107   -0.09400907197446
O          -1.66567809943466   -0.82479489397770   -1.05819855012988
O          -0.35036254915945   -2.81247454980426   -0.61051946968214
O          -0.79442282562918   -1.19653844278244    1.15143584050624
O          -2.57319070870198   -2.61064136961627    0.34488878836471
H          -2.65948398004770   -3.24273670608980   -0.36071737378860
O           1.59041288697948    1.79627083231079    1.08568057317311
H           1.59812063234308    1.84178782193411    0.11149136882581
H           1.87162051543946    0.89296309254913    1.30675180482921
O           1.51454249649991   -1.04369197603790   -1.27702226952009
H           0.80692849482149   -1.71358222650531   -1.22738976814151
H           1.91892883703202   -1.05475577639118   -0.39562498390921
O           1.17743579736675    1.53006578512518   -1.62110001068455
H           1.22759095509903    0.53828309677773   -1.56180653984031
H           1.71304232597143    1.77471000716089   -2.37664921961163
O          -1.53505909680525    1.80368625639729   -1.30949090584472
H          -1.74087038355496    0.85122521522808   -1.40414802229025
H          -0.60578698979688    1.87375871181594   -1.59414644186300
O           1.80290998014041   -0.93726475866953    1.47329617926984
H           2.14313953906601   -1.61920409205444    2.05367794768848
H           0.83180898311741   -1.09617432188276    1.39862402110516
N          -1.02149301022996    1.43136459859724    1.22064977192267
H          -1.34160073799310    1.71237453821699    0.23449911012807
H          -1.05420094464695    0.37866913714902    1.25472065007556
H           0.00113069097353    1.70416989300231    1.30812541663916
H          -1.59457355911198    1.84380283188024    1.94698114474437
