    26
        -50.47033067  Gyration_radius:  2.48567642432 Dipole_moment: 2.270
 S           0.22263819863618   -1.36471710819278   -1.55124546102462
O           1.51233146492988   -1.85811736872492   -1.12573446030360
O          -0.87524858810314   -1.92922941891964   -0.77570455877910
O           0.15421321689227    0.08814095522647   -1.60608198664385
O           0.01858032789976   -1.85243744733801   -3.04449045903563
H           0.31158144774453   -2.75714624940857   -3.00860016107023
O           1.94337968048137    1.47418174078703   -0.30750567690462
H           2.62838939462582    1.75419614945910   -0.91639563661554
H           1.29471800448502    0.95185475330499   -0.83959271187949
O           2.13985717909281   -0.79257305435127    1.22523065062642
H           2.25950643081121    0.12408686205163    0.92608806154756
H           2.08400516699376   -1.30993319216584    0.39430781504052
O          -0.07915610496622    2.98193513959738    0.78467396666098
H           0.72243017068913    2.50936253640818    0.49810626386118
H          -0.51587094503125    3.27856310403133   -0.01659714663075
O          -2.39245183025802    0.43559267995921   -0.87813916627466
H          -1.48371324839056    0.44679493941423   -1.23407535496844
H          -2.63069200977478   -0.49584165327848   -0.88384694271466
O          -1.79240263011572    1.09163032412549    1.65590309967463
H          -2.19694104723737    0.94535136528366    0.77188584512389
H          -1.18318962487186    1.84824211705815    1.52518324553671
N          -0.43096548651834   -1.12441024513333    1.70438743945177
H           0.61745110914791   -0.95529780737048    1.68299143804396
H          -0.97102184103426   -0.19200543377620    1.79081401826719
H          -0.67751927175689   -1.54160802281165    0.77118793915952
H          -0.67990917436363   -1.75661566524165    2.45724993984651
