    26
        -50.46802116  Gyration_radius:  2.42669041057 Dipole_moment: 3.844
 S           0.04828825196123   -1.49764499370472   -1.06417291458935
O          -1.25366710594671   -1.27625234587089   -0.44417877584845
O           0.50810853615816   -0.28468830560378   -1.73817235104643
O           1.03196877451282   -2.03624000851828   -0.16510845423071
O          -0.21417916219043   -2.57088376286112   -2.19304955230841
H          -1.11729501512677   -2.38519336086324   -2.42852578675799
O          -0.43617680053781    2.72386184064216    0.32421666819114
H          -0.89211559006095    2.49484961398651   -0.51196954096546
H           0.50174655844156    2.54296697192611    0.15263683922239
O           1.64890072640607   -0.27122677821487    1.73527415174124
H           1.56232020388941   -1.04127478718677    1.13845229571069
H           2.00316413280819    0.43783404875012    1.17439033567747
O           1.94993329289559    1.45646300155237   -0.38824792151904
H           1.45107655190962    0.79251418934775   -0.92053561708350
H           2.74741569780483    1.65088270924918   -0.88248439985915
O          -0.89430836000131   -2.43401448386142    2.03082169330260
H          -0.00072374699881   -2.78100348507942    1.98639311319006
H          -1.12869780643070   -2.22065590850305    1.11731672929229
O          -1.31999581532763    1.62269586586452   -1.97231905710701
H          -0.70646243868122    0.86042851149511   -1.90468355147479
H          -1.16888384114454    2.01565757244015   -2.83337241284723
N          -0.88579989717690    0.45073634976925    1.57700638662242
H           0.09697587054110    0.13977238440390    1.84171946763633
H          -0.82967132616349    1.44689807248393    1.21074854067198
H          -1.18383383634350   -0.17535735430317    0.79505976920541
H          -1.51808786517963    0.33887442267169    2.36278434513249
