    26
        -50.46882406  Gyration_radius:  2.44121736537 Dipole_moment: 2.000
 S          -0.62876488711751    0.44395894305738   -1.71396628792573
O           0.73306750268028    0.00525581971746   -2.00258098260811
O          -1.41674537741607   -0.64593684379183   -1.14216660688250
O          -0.68408824267785    1.64731859001392   -0.93128139223054
O          -1.28345717283952    0.75795357435469   -3.11866048193302
H          -1.14642090812010   -0.07709825513750   -3.55088625268460
O           2.53798435746972    1.11122363369254   -0.40629461649717
H           1.85453661007251    0.76817642112881   -1.02634447552408
H           2.94875323750292    1.85289657830790   -0.85309446074037
O           2.25618795307454   -1.80260517264360   -0.64896316587751
H           1.74922830840701   -1.31841337815615   -1.32402205573927
H           2.83252737806662   -1.13884823106755   -0.25719539278210
O          -2.91687143129831    0.06592198776830    0.90482515580673
H          -3.60156452912508   -0.60554775981179    0.90214599108923
H          -2.40232348327280   -0.07452602024742    0.07681417276769
O          -0.05671463867435   -2.08748790918553    0.66945178442823
H          -0.59553741665404   -1.70807857691775   -0.05366287114939
H           0.85072830561953   -2.14393586709327    0.29907010213313
O           0.64899542180988    1.92603770168822    1.34402861832964
H           1.49022353638260    1.65609814095214    0.92620886678740
H           0.05089387150564    2.04095443785784    0.57703012861917
N          -0.63913547962796   -0.13734523626441    2.30194263994152
H          -0.06061295743546    0.71798725865789    2.01448017256294
H          -1.61394352886587    0.02313201699769    1.95493647746024
H          -0.29014266922927   -0.98845543658758    1.75466255413653
H          -0.61680374022364   -0.28863640728861    3.30352239851460
