    26
        -50.45757819  Gyration_radius:  2.55677190898 Dipole_moment: 3.355
 S           0.43100450172984    0.28175454104031    0.29017993815603
O           0.14916020130968    0.22377754614220   -1.21359072627699
O          -0.27417519287359   -0.91308632616961    0.89773236946051
O           1.84717618717934    0.13506389563363    0.52457409601551
O          -0.14333217596360    1.50664770674880    0.78483663651868
O           3.50540144645402    0.24049053056383   -1.61925986500993
H           3.06090510191265    0.26157070634640   -0.75232542775411
H           3.59377938233470    1.15085206618593   -1.90417994201050
O           1.88426863718708   -2.55963565442508    0.28484522765253
H           2.06911646653643   -1.64363140214907    0.55430718383337
H           1.03629073940800   -2.77213057273512    0.68379199327990
O          -1.88261375402051    1.42481425984512    2.83091008049573
H          -1.39087836435301    1.26682600811469    3.63825952391989
H          -1.22216135991937    1.62320181534332    2.13832764454465
O           1.59239089346584   -1.57048534876146   -2.16755740188454
H           1.73385445122271   -2.15431534010823   -1.38543933880115
H           0.70941359913837   -0.55100170415016   -1.65990746217423
H           2.41790063551403   -1.05088519993448   -2.24316120634001
O          -2.66245836813015   -0.43854598939143    1.11142260112649
H          -1.39160792053409   -0.75437122088042    0.98788820690542
H          -2.62210675666260    0.17051909724032    1.88477952062272
H          -2.78977313830782    0.17183246347696    0.31523039472429
N          -2.52621280774750    1.30174821017531   -0.83295509308133
H          -2.28847757413439    0.90748568759103   -1.73430624299657
H          -1.66623487916846    1.67307693359518   -0.43512096893330
H          -3.17062992156633    2.06842729064616   -0.97928174199890
