    26
        -50.47376041  Gyration_radius:  2.38792280316 Dipole_moment: 3.931
 S           0.60969114376296   -0.89309502140474   -1.48735802500339
O          -0.50494566518507    0.01849844076786   -1.26282136960150
O           1.46294576961854   -0.52986830224583   -2.58454107505312
O           1.31836899816367   -1.18284997113490   -0.25164741374700
O          -0.09454612645795   -2.26782501084956   -1.91383000740763
H           0.56839122832598   -2.65616955714703   -2.47464275116580
O          -0.19749192051284   -1.53271443075344    1.90894092393553
H           0.47498060634337   -1.55613837263814    1.19637198068469
H          -1.04359126556754   -1.65878434725888    1.43625401744820
O           2.10941508985841    1.20464560118135    0.66018536101215
H           1.97795829045373    1.71261690823804   -0.16782431442336
H           2.04455098283627    0.27260626965114    0.37675384079846
O           1.42445352124575    2.02312549005035   -1.79970724807833
H           1.57524484203346    1.15820871049307   -2.22477172850374
H           0.47859541367555    2.17398608857003   -1.86578245368119
O          -2.16230508993907   -1.57142036408993    0.04404098737090
H          -2.22709635283888   -2.41112090329889   -0.41396979508944
H          -1.57908755325288   -1.01838483106049   -0.51712147909198
O          -1.99572349858318    1.49637195008931    0.40888842434586
H          -1.45896543375497    1.11023383945525   -0.30857561403303
H          -2.70554193028074    0.86237899997007    0.54634697128766
N          -0.02194607870877    1.07173139994877    2.16896420125982
H           0.87778886973889    1.25282792448338    1.61336932240809
H          -0.10413405374094    0.00747750228359    2.23584672892757
H           0.00780068688837    1.51158413860207    3.08115944423981
H          -0.83481048411703    1.40207783809059    1.59547106115665
