    26
        -50.45757819  Gyration_radius:  2.55680367244 Dipole_moment: 3.355
 S           0.53226974055484   -0.18600966250287    0.17726819451563
O           0.32679144534105   -0.88769920657687    1.41836074281328
O           1.91232311282849   -0.03705145105133   -0.21675323993566
O          -0.20760828305163   -0.87927511228512   -0.94791592192396
O          -0.11307283615121    1.19453152890941    0.32479977676496
O          -0.84696110333576   -3.30437875793876    1.39731155640984
H          -0.21033702347468   -3.94575735288961    1.07806215847528
H          -0.35044941269043   -2.47853372221505    1.56061227002169
O           2.98963027133461    2.45133923125553   -0.14973382966155
H           3.16908570032942    2.69210930918437    0.76003615777880
H           2.78093522451049    1.49947868603221   -0.15024796781989
O           1.40223045232587    0.37179341640933   -2.84223135122936
H           0.65291589770037   -0.21852494151788   -2.95815248370702
H           1.80965150527353    0.10257789346208   -2.00118224470487
O           0.70564047337561    2.59896279850593   -1.56457270887324
H           0.92534044519876    1.91790837231674   -2.24316132981271
H           0.17210858354917    1.81786978735776   -0.47733445576880
H           1.56780366742739    2.85256542979735   -1.17788885423955
O          -2.34562541064210   -1.73167184298139   -0.12504668755417
H          -1.22173717428027   -1.26463730051208   -0.62400633445314
H          -2.00876189000751   -2.50487700286188    0.38420693565526
H          -2.55055909217350   -1.03512925382334    0.57888492227177
N          -2.37491096677233    0.06932233856259    1.76793887050171
H          -1.39142715786636   -0.11526460352598    1.95342250246834
H          -2.88606711865506   -0.00393873363126    2.63847556886989
H          -2.43920905065358    1.02429014251814    1.43884774314207
