    26
        -50.46936532  Gyration_radius:  2.43006163091 Dipole_moment: 1.256
 S           1.52938591737681   -0.81557018199556   -0.70741084197163
O           1.60399469285907    0.53560511383101   -1.25480638039379
O           1.47538879318719   -0.77392144482503    0.74836833228768
O           0.47879061158523   -1.60936485986950   -1.29327215884785
O           2.89093733060428   -1.52331380814979   -1.08157101122538
H           3.53575299786044   -0.96095797698861   -0.66542317505336
O           1.08901943883023    2.93352077957206   -0.18154269895492
H           1.42488888766619    2.11992415437161   -0.61026817513147
H           0.57110017737595    3.38266909773581   -0.85295041441372
O          -1.61962012417609   -2.06191617628360    0.22710847701847
H          -1.98359686131443   -2.91209396840680   -0.02384663472772
H          -0.80626703379705   -1.93925034697458   -0.31569386641697
O          -0.82015352593422    0.65077594740423   -2.34323683160785
H           0.10113353343988    0.68194237198668   -2.01897277375046
H          -0.91247988633108   -0.23596663970338   -2.70100434404798
O          -0.50322406311776   -1.26920979284510    2.72567287673633
H           0.37647873000982   -1.36469912340942    2.34425965265898
H          -1.09796277984969   -1.61870651724217    2.04875151003048
O          -2.25339951417354    0.57676671286304   -0.07652698910803
H          -1.85959083932088    0.70335601552975   -0.96884461909460
H          -2.27950605489061   -0.38636740848125    0.05980514076980
N          -0.18955063089584    1.19752698545041    1.41009130635257
H          -1.09977362001733    0.99155817230144    0.87806543768500
H           0.47585894211771    0.40790645338624    1.21130078358582
H           0.23987617697660    2.06766380209998    1.03129018032836
H          -0.36748129607487    1.22212262864215    2.41065723729838
