    26
        -50.46891245  Gyration_radius:  2.44420964481 Dipole_moment: 3.272
 S           0.85439989381652   -0.29971566807457   -1.65757383794281
O           1.17407494575883    1.09965768667429   -1.41735128311367
O           1.58631000115609   -1.19986314839683   -0.79542258353173
O          -0.58385018536221   -0.52691229259231   -1.62968501427375
O           1.33173628470456   -0.64199415101814   -3.12699932224115
H           2.16024898239166   -1.05386441385191   -2.91157352544720
O           1.43286259895619   -0.81109984541856    1.82495051735490
H           1.60110090805062   -1.11586266200521    0.90789100478572
H           1.68386351235265    0.13636677524442    1.79811089906034
O           1.89264218306029    1.72747697855219    1.11911987397685
H           1.85051915532383    1.47228309796434    0.17915249595354
H           1.23323414013495    2.42140376631470    1.21388476110883
O          -0.38383776463561    2.94342061036676   -0.30893055001171
H           0.18640063965276    2.30985568553726   -0.79912878846786
H          -0.64461857575389    3.61290169769456   -0.94262902479522
O          -1.38251964245202   -2.68710130938719   -0.35764351879492
H          -2.21644634579253   -2.89212849560772   -0.78438339301353
H          -0.97816726964803   -1.96694072515252   -0.89458029541727
O          -1.99424568661804    0.82998523840230    0.19548767117193
H          -1.54897756266124    1.69823377900286    0.19037273924441
H          -1.61474045720510    0.36433568761559   -0.57752035413640
N          -1.14468425281734   -1.08718045100381    1.78634883386031
H          -1.53522513273758   -0.22564479218005    1.30460679841014
H          -0.07438944055048   -0.96557143723833    1.90140738695740
H          -1.60013690647265   -1.26992888807761    2.67277445201858
H          -1.28555399265251   -1.87211270336412    1.10931405728378
