    26
        -50.47444109  Gyration_radius:  2.41397489765 Dipole_moment: 1.590
 S           0.27746498787173   -1.78361448162246   -0.78770346126469
O          -1.12401285237808   -1.47070456090477   -1.02664742045959
O           1.15812337444697   -0.95690229834825   -1.60799854948094
O           0.63467495540225   -1.77204807139945    0.61039268901116
O           0.49645053159134   -3.26811681466720   -1.29064283362519
H           0.38134466688624   -3.17518789959833   -2.23005355043530
O          -0.41683884136447   -0.21825819456260    2.50544007367379
H          -0.01584057142055   -0.93307335747952    1.97092380601096
H          -1.27729193757583   -0.06460947133893    2.07895259766482
O          -2.37664209798532    0.11018324057884    0.62309915371605
H          -1.90548099039927   -0.51518370841105    0.01497750484769
H          -3.30048232603650   -0.14286483548554    0.59906354000437
O           2.72786825451096   -0.04580690243893    0.27665055298628
H           2.54733015812937   -0.79838145668504    0.85192348485342
H           2.28196722297295   -0.30097728681400   -0.56002615816593
O          -0.92865392377244    2.27193422815269   -0.32660520342119
H          -0.75967600997628    1.89793385710304   -1.22278946466698
H          -1.60487359729227    1.68802394729660    0.05564230942226
O          -0.60209536575587    0.79855407450184   -2.52227050083692
H           0.19335052674773    0.27164143870712   -2.31660036143748
H          -1.32224192653677    0.17475326006913   -2.37944259297944
N           1.00414540474789    1.67162463282676    1.34501561045225
H           1.39041356216752    2.44295763484642    1.87702909312635
H           0.30385571903048    2.01824748687193    0.61708902179993
H           1.76900646083605    1.10806234770878    0.87822776502241
H           0.46813459523957    0.99181318111974    1.96635287422331
