    26
        -50.46574998  Gyration_radius:  2.50005693517 Dipole_moment: 3.048
 S           0.49465803726134   -1.16515157404648    1.75639005923082
O           1.24546180981462   -1.54636994298822    0.56390599376223
O           0.94705439944547    0.12712296395933    2.26356045839301
O          -0.93083381215943   -1.24484154913496    1.57065577485503
O           0.87481055696502   -2.21544033155166    2.87740000254983
H           1.76930665987975   -1.95312153074945    3.06396617663332
O          -0.81759445467631   -0.10719325463198   -2.13999695231474
H          -1.42834229875076    0.08399137769915   -1.40878864764416
H          -0.70384816307067   -1.07573617927300   -2.09374597186837
O           1.70380779590635    0.27455018254979   -1.34791174042283
H           0.83119390619755    0.19534901073280   -1.80311972941024
H           1.70931868748073   -0.47230263768992   -0.71560895184111
O          -1.27505719371537    2.71564186764662   -0.50154041440921
H          -1.20955938246803    2.56101849077290   -1.44822192949605
H          -1.80341225788119    1.96974543575306   -0.15668968014699
O          -0.21047414448613   -2.64431256718584   -1.39757066023387
H           0.42169810380966   -3.21815033450558   -1.83322659476237
H           0.23643739965719   -2.31161255842884   -0.59276769483413
O          -2.36867393708204    0.34066146780632    0.12200705496897
H          -3.26309314670486    0.00527386154928    0.20014766527171
H          -1.81606416586106   -0.24445310129305    0.70136366268784
N           1.12570764075673    2.01751354359587    0.47409608612975
H           0.19334433788456    2.41102561976667    0.19764286238744
H           1.47986204666660    1.41117890965265   -0.34711914655505
H           1.77904361994721    2.75278384267231    0.71819203164616
H           1.01524796498840    1.33282899750913    1.27698030526553
