    26
        -50.45805526  Gyration_radius:  2.62957467412 Dipole_moment: 2.586
 S           0.47781744163725   -0.62289687330761   -2.05186313909400
O          -0.80497784868487   -0.09228536361367   -1.59370677558854
O           1.54359113780368    0.35510370858358   -1.96690296560901
O           0.80420958539846   -1.87645970456570   -1.40761348924549
O           0.27093044715637   -0.92188496317645   -3.59627151621235
H           1.15742233380059   -1.12906716750529   -3.87336546102503
O          -1.54827192382413    2.41408212375564   -1.08380102172783
H          -2.21433718366414    2.63867164880070   -1.73554896381280
H          -1.20667358755762    1.53321548470733   -1.34881741890012
O           0.04249435597914   -2.71578011212962    0.96530745848691
H          -0.03102623407692   -3.67002796485521    0.93454587570217
H           0.34607287449747   -2.43748188982183    0.06970822572581
O           1.83775728280272    0.87777063292943    0.55921724223379
H           1.80769704278492    0.65290108309428   -0.40427259113222
H           2.08670672973052    1.80263427888201    0.60256003244546
O           1.64877629864206   -1.10751489854339    2.64791781375311
H           2.11173614480779   -0.55941072995102    2.00634551734944
H           1.26957515967537   -1.84237082086435    2.14717548333295
O          -2.28315751204671    2.01887188987498    1.46988868058524
H          -2.09839647705720    2.24660441705180    0.52983574823692
H          -2.03101661569237    2.78357518752922    1.98918794107530
N          -0.65288035372456   -0.07504663001583    1.05351900658113
H          -0.66392648255331   -1.00435171910432    1.48668657978606
H          -0.83984027628151   -0.18048223828514    0.02642471865410
H          -1.34330561981950    0.59635045397520    1.45189006799327
H           0.31302327029390    0.31528018655965    1.12195293034772
