    26
        -50.45757820  Gyration_radius:  2.55675826563 Dipole_moment: 3.357
 S           0.17074799526782   -0.54025912862268    0.16833194921233
O           1.07960132123940    0.35070669393970   -0.65269420765975
O          -0.52157696952740   -1.47139183882578   -0.68526426532737
O           0.95907812297043   -1.14416451771351    1.21514978241715
O          -0.88538097000216    0.38078810449601    0.78511500965131
O           0.11559490920737   -0.83961378355972    3.77494699637426
H           0.50116576558421   -1.10592149683967    2.92053793756809
H          -0.63057678867281   -1.41964786049877    3.93159786136522
O           2.57216596044225    0.99241575525109    1.60675063881428
H           2.64925542793136    1.30811515934766    0.70244584524440
H           2.22242294588201    0.08810668840156    1.53093153131104
O           0.21206877956449   -1.70978552015590   -3.25882063469782
H          -0.12021695682377   -1.78801109105955   -2.34301647834904
H           1.03197394823542   -2.20488075379979   -3.29375061172389
O           0.20755385011704    1.60734515185187    2.65958823245191
H          -0.46003689741560    0.95422996459835    1.56192249997652
H           0.13363333084071    0.90637569909998    3.33807513596242
H           1.15496458653958    1.59322672555495    2.38613020122495
O           0.00150419860886    0.89056306203463   -2.77889123634647
H           0.60989619157109    0.65601641536391   -1.63684752967047
H           0.12736858585375    0.02427913185010   -3.23101823690578
H          -0.96714112842717    0.88568842819098   -2.48820776197381
N          -2.35637387002862    0.50232951793622   -1.72208184715306
H          -3.19723493434473    0.26950034403066   -2.23514241812786
H          -2.60037025049357    1.15428483956945   -0.98735008075648
H          -2.01008717410884   -0.34029571044115   -1.26843831288044
