    26
        -50.45757825  Gyration_radius:  2.5567495503 Dipole_moment: 3.359
 S          -0.36883546470931    0.45516690258753   -0.07949334406614
O           0.19436408451167   -0.52984543012295   -1.10742596019600
O          -0.23412587526066   -0.22004599106199    1.26950813747169
O           0.44985360098661    1.63928050323265   -0.13045940419973
O          -1.77205612807661    0.67372952742199   -0.33485607965364
O          -2.62382649340315   -1.59088565296721    0.87613878542906
H          -1.99543779028289   -1.63528543728155    1.60179733281614
H          -2.55701479109323   -0.68148442399763    0.53797475880375
O           1.58972308102372    2.56239908957679    2.12059285677108
H           1.19280374835639    2.39449181694694    1.24340255711475
H           0.91267269122013    2.98877784359988    2.64819325361461
O          -2.80773946651705   -0.30113123486144   -2.64460288528326
H          -2.53436078485714    0.25847239892193   -3.37259486872331
H          -2.57687389541374    0.17414208107670   -1.82583351595522
O           2.07521022572033   -0.04451181293609    2.05092091223496
H           0.82830505388079   -0.19368560853024    1.66078781608996
H           2.55984567454800   -0.05728570180143    1.16329673993151
H           2.06901447655091    0.90479990179821    2.31448907474548
O          -1.51036566944342   -2.31989695164197   -1.42730661651584
H          -0.47625853196336   -1.33186568734725   -1.24932205513555
H          -1.99661583205860   -2.29227084992907   -0.56970069106154
H          -2.08781034410879   -1.84260566500815   -2.05652569276137
N           2.92707925721182    0.18251199293685   -0.40864121403908
H           2.77393796531132   -0.63598488319858   -0.98397408881126
H           3.79985673240191    0.61164377819959   -0.68896941910678
H           2.16865447546368    0.83136949439540   -0.60739637951644
