    26
        -50.47031931  Gyration_radius:  2.49274675567 Dipole_moment: 3.321
 S           1.25815866848093   -0.79462245646701   -1.40560821379481
O           1.93028013651223   -1.54090022737992   -0.34962565011618
O          -0.06027824179801   -1.35452321808410   -1.68935069484381
O           1.23150055906129    0.62876393558577   -1.17018972727152
O           2.11751109219842   -1.01260951597885   -2.71804173470892
H           2.15080078503714   -1.96117735918397   -2.78648997144907
O           0.12558492897024    2.12343908916581    0.79000971904247
H           0.62504657943996    1.67324204417527    0.08412344657079
H          -0.80859951641345    1.96143978341801    0.58207929958086
O           1.00962910246152    0.95704164252787    2.94613338253537
H           0.62040722473396    1.49338163946985    2.20071538181661
H           1.92612509105452    1.23097670880344    3.00682767770907
O          -1.08714252047278    0.94692148698911   -2.50495620015144
H          -0.90120755457289   -0.00551799723217   -2.40170953192881
H          -0.23068940693985    1.34778849232699   -2.30309566652591
O          -2.33351295057184    1.32174207785800   -0.21512050676319
H          -3.18388291144788    1.74760648125575   -0.32766543651484
H          -1.93890056505925    1.23136466363929   -1.12513216371326
O          -1.69524784290594   -1.26054199712381    0.41846739933658
H          -1.20741099009646   -1.42316924350211   -0.41526150061319
H          -2.04705423628549   -0.35536326452577    0.32991210755103
N           0.50426084179254   -1.40163527758543    1.83522924254817
H          -0.47212423894307   -1.34589224544579    1.40702538323328
H           0.58323813376782   -2.20771980674689    2.44548925197658
H           1.16342792207761   -1.49185631026775    1.00909908463762
H           0.72007991988862   -0.50817914569328    2.35713564181731
