    26
        -50.46734224  Gyration_radius:  2.50822910942 Dipole_moment: 2.140
 S           0.38328022924574    1.62215166011737    0.93952158778553
O          -0.50974416247397    1.95358854986975   -0.16175830568049
O          -0.30049176368645    0.84959239326575    1.96856638303161
O           1.60232895123190    0.98019110700645    0.50185070070447
O           0.79648251501042    2.99999519665828    1.59420259608940
H          -0.02721663955216    3.47667973266588    1.62166626062027
O           0.22057308939656    1.10080129130446   -2.63466192168728
H           0.11441969606801    1.50974365669113   -1.75554594384440
H          -0.66941530838895    0.87212975349231   -2.91453603033190
O           0.42157730379136   -1.72638257266484    2.19583423099745
H           0.20802197826830   -0.76938481485602    2.16685646163070
H           1.05335619701673   -1.83093085702627    2.90790851598398
O          -1.83699258759577   -0.29967197320423   -0.74376589833214
H          -2.29268748220357   -0.56193369165070    0.08356949117255
H          -1.53872890876125    0.61561495757813   -0.58049798556357
O          -2.46500425813526   -0.78277823018174    1.82172852750230
H          -1.83424085051617   -0.06585456748495    2.01132889917656
H          -2.02761311893580   -1.58451516729948    2.12174454994580
O           1.75823602610261   -1.10537918822904   -2.89040322620960
H           1.23754399648543   -0.27301411129619   -2.93110104066068
H           2.67811939189660   -0.83995556817252   -2.93215506309633
N           0.61129206119425   -1.26121143477637   -0.48388158902818
H           1.07985603534106   -1.53502476660734   -1.37257936534849
H           1.08851903334649   -0.39192765727823   -0.13031346155640
H          -0.40309847895471   -0.99948600168456   -0.67408142989662
H           0.65162705480842   -1.95303769620147    0.27050305657112
