    26
        -50.47411094  Gyration_radius:  2.41823107731 Dipole_moment: 2.957
 S          -0.95382123778369   -1.36073808059720   -0.07696414450138
O          -1.23844336987581   -0.02131104839467   -0.62932928544598
O           0.49004587676155   -1.61982222252309   -0.15531163069689
O          -1.46661014766932   -1.50589446217016    1.25807356090229
O          -1.66314357967382   -2.38080983076020   -1.00319795903675
H          -1.32681133542360   -2.15670945331926   -1.90088940650796
O          -0.53046611772758    0.29331042422429    2.96399047252807
H          -1.00046832826729   -0.43885023015678    2.50781560400654
H          -0.80025083491807    1.09510832972211    2.48640360471199
O          -0.77285750163811   -1.43043138502596   -3.31154367154932
H          -0.05748754536003   -0.80575363951992   -3.08471864741833
H          -1.49999710700525   -0.89935997164723   -3.64410851689391
O          -0.96785407124732    2.07245834821381    0.89283526260687
H          -1.13768124378763    1.27606316337621    0.32846935825983
H          -1.69944142368681    2.67073686958260    0.73516948389103
O           1.67715711644373    1.98282318876984    0.07501133692291
H           1.55675503864675    1.57272253773822   -0.80213688979518
H           0.79167893376088    2.27661373754921    0.35057821879526
O           0.93937145217081    0.29071933780376   -1.98953878674479
H           1.36101174515166   -0.48628520661462   -1.59828411262579
H           0.06804718612081    0.31630241775435   -1.52405062475459
N           1.68027448821472   -0.15351671284491    1.64107459783551
H           1.28386509303860   -0.86210834517637    0.95665343541116
H           0.89277590731066    0.03614243015057    2.34009556196597
H           2.51953966249505   -0.49710682037998    2.09345849573195
H           1.85481135393513    0.73569664423404    1.09044467239694
