    26
        -50.47361543  Gyration_radius:  2.43362794693 Dipole_moment: 3.326
 S          -0.23521730339305   -0.85377172520783   -1.23423917299236
O          -0.37038211667800   -1.47395772575516    0.09409052411220
O          -1.31529025172748    0.08732069688545   -1.46329239264015
O           1.07612251610243   -0.25612042879594   -1.39685798756239
O          -0.33609101699443   -1.99499692845512   -2.29434857030969
H          -1.21796714560477   -2.38015985325584   -2.13509283121639
O           3.29131194328780    0.10721778508219    0.01404825025889
H           3.51934156771058    1.02084005330747   -0.17378401809716
H           2.62546733227792   -0.14002207684986   -0.65947513523333
O           0.03418860140829    1.99650771232814    1.73565646877732
H          -0.88386571595162    1.67040340022874    1.61675904604392
H           0.29139092242344    2.31249326786745    0.84121677962740
O           0.51903155231184    2.30941199182464   -0.88326935532546
H           0.78551614672031    1.40912548212556   -1.15056327093457
H          -0.34195733525894    2.43480525002608   -1.29033331279257
O          -2.65623385433724   -2.32500566841886   -1.05038722284750
H          -1.99722436396333   -2.20766180627003   -0.34835699448681
H          -2.95157272107765   -1.43763275701966   -1.28196869014250
O          -2.16855096369500    0.66511281146338    0.98659572871180
H          -1.92277026405338    0.54265536537613    0.04550706353730
H          -2.17475255575087   -0.21569323333325    1.36696970126743
N           1.29800143576756   -0.26796934490705    1.75967462335255
H           0.81838160725686    0.69994479125907    1.86703461210347
H           0.66198126938626   -0.84672855443612    1.15013887567478
H           2.19551329796135   -0.13756464540067    1.23003476161177
H           1.45562740582352   -0.71855384973983    2.65424252943271
