    26
        -50.46547830  Gyration_radius:  2.52016973854 Dipole_moment: 1.851
 S          -1.20142178971792   -0.09527802098104   -1.62041714238763
O          -1.88069364789831   -1.26745660039531   -1.11995020515438
O          -1.78395317208800    1.15050065479317   -1.17355063548249
O           0.24029283975800   -0.13228611808176   -1.34692858092106
O          -1.31300186419933   -0.14292452177716   -3.20171111549762
H          -2.23723447836298   -0.33087691079653   -3.32632497986556
O           1.31453999091877   -2.13070472828778    0.08660900243581
H           1.77102895000345   -2.75539516005387   -0.47814697669291
H           0.91745951394800   -1.46269176235306   -0.51094444813180
O          -1.19986757076007   -1.91797139417908    1.36911219629403
H          -0.37409958742386   -2.38385638914311    1.17747811630387
H          -1.62009648228055   -1.78992042687903    0.49248628028173
O           2.56243709556664    1.20295915456921   -0.84476680393063
H           2.43994242264854    2.12321370261133   -1.08143288140285
H           1.78490634701324    0.72644235654474   -1.18247560415789
O          -1.81437120129186    2.55852177373635    1.10333539949864
H          -2.72253555974007    2.64251162523025    1.39713333448216
H          -1.85704628035105    2.18209005907047    0.20034080719392
O           2.46189945291905   -0.03468554035042    1.59745065912980
H           2.74973684129539    0.47348392667085    0.81735594320584
H           2.29839537274899   -0.92981263225359    1.26104051499226
N          -0.10980008408302    0.48520696192030    1.30572883176078
H          -0.64438249326370    1.33154542997777    1.56966958581918
H          -0.04365437709481    0.46369996503235    0.27353957356394
H           0.88087263609308    0.43854222107910    1.66895336997405
H          -0.61935286435952   -0.40485763570237    1.56641577868871
