    26
        -50.46680508  Gyration_radius:  2.46322152532 Dipole_moment: 4.304
 S          -0.75296855147941   -1.19381587485657   -1.49423416018383
O          -0.13813054823661   -0.12175824418532   -2.26330469068161
O           0.25268767301823   -1.98323852201004   -0.78618383874414
O          -1.81459990831492   -0.75942961226766   -0.62275243577773
O          -1.40695494124470   -2.15891579801822   -2.56546110841489
H          -0.76115996663224   -2.13961948031523   -3.26356488034148
O           2.28828549454155   -0.04789979051622   -1.16335283221554
H           2.40606432286929   -0.99552080142850   -1.05991880257892
H           1.43257412239074    0.03911905019217   -1.62658349437082
O           2.01722614188557    0.74729027791331    1.39177615807057
H           2.25884929067882    0.61292579586510    0.44967456388025
H           1.31135720881409    1.44409681095730    1.39116560277383
O          -0.68905297913611    2.33964798347678   -1.37988963735019
H          -0.60348917474863    1.42462260355860   -1.71123233499918
H          -0.07763481400300    2.86632774271267   -1.89812788555778
O          -1.91517600598502    0.06102399966674    1.83792229593985
H          -1.94878874388009   -0.18444934181317    0.88057314517520
H          -2.82465219604157    0.08222686974881    2.13839037108810
O          -0.16519157425561    2.21338701916476    1.27365840296285
H          -0.37919592138013    2.35993072399164    0.33023545041687
H          -0.85210255857953    1.61523296038969    1.59895145644418
N           0.46905188530802   -1.26929932214103    1.73226176421760
H           1.19572799912815   -0.43853703365431    1.67524982240714
H           0.36521010353028   -1.64192676098710    0.74727108323061
H           0.77267507903837   -1.99816895518377    2.36768260692586
H          -0.44061141728337   -0.87325231026218    2.01979337768457
