    26
        -50.47287075  Gyration_radius:  2.45162284504 Dipole_moment: 3.708
 S          -0.79653863345585    1.02596432617627   -1.00665766756916
O          -1.65510714312798    1.24206882115698    0.15855893596129
O           0.60531213679775    1.22600371216176   -0.63791212288674
O          -1.01525469460444   -0.27119987900507   -1.60978617661626
O          -1.15797246924788    2.10177232679183   -2.07434558687676
H          -1.01407935436151    2.93568366323223   -1.58369557621774
O           1.91454895016593   -2.15374148210531    0.48145372161942
H           2.22890977734528   -1.71585159403607   -0.33905624586734
H           1.80021779433255   -1.41218281859217    1.11918501709015
O           2.33093536606871   -0.55637745575470   -1.62261400707848
H           3.13760481381448   -0.05998149988645   -1.76995461222396
H           1.65542767896245    0.09927640161133   -1.35100196496668
O           1.05927264209050    0.02893795078222    1.75078519123670
H           0.16956165577486   -0.17883621317853    2.06208467163157
H           0.94288246719668    0.55355574972546    0.93671525970268
O          -1.70440563924424   -0.73291864659535    1.83804952246616
H          -1.74556259626052    0.02645618168105    1.19935526611618
H          -2.45527429733880   -0.62596111656741    2.42392445207214
O          -0.56654526933629    3.68155402477254   -0.04551864131471
H          -1.12176353577760    3.00161538324492    0.36917346338424
H           0.33283857853291    3.34257175617915    0.01754539505085
N          -0.60219643741130   -2.34286111070653   -0.06475377521310
H          -0.96089659283972   -3.23321399910480   -0.39049162028693
H          -0.74990076603473   -1.58675891721499   -0.79206329212865
H          -1.10101008458907   -2.01235164659784    0.77849797959355
H           0.46899565254866   -2.38322391815904    0.15252240331316
