    26
        -50.46753769  Gyration_radius:  2.52669082039 Dipole_moment: 2.083
 S          -1.98985929658050    0.38397840449815    0.26959327360482
O          -1.44934038380380   -0.91222717368626    0.68920510667589
O          -1.46807315079793    1.46655186098852    1.07850607278572
O          -1.83551565798034    0.56212117905897   -1.15376547006278
O          -3.54638396550239    0.33686933510082    0.56411877579679
H          -3.57890425960520    0.53266935016196    1.49493705708247
O           1.64051703394582    0.92144859711855   -1.27054933628769
H           1.65241341014868    1.13424028200833   -0.31769873174207
H           1.02906094007092    1.58230721633333   -1.66119816786906
O           0.80683594367317   -1.17926608225600    2.17551266075610
H           1.15161464466278   -0.28272841994671    2.04664256024490
H          -0.08983946649058   -1.15135113124111    1.79483997018890
O           1.12268299245283    1.45495662982113    1.34222757975009
H           1.37991079674390    2.29579102971035    1.72389482572371
H           0.13681708794295    1.49147094385887    1.24898781572814
O           1.85253632477785   -2.89544655689627    0.46764344160799
H           1.58199893655577   -3.76632331718472    0.76139861481153
H           1.59476807688110   -2.27203097845863    1.19684069431597
O          -0.34461094898366    2.53060068790385   -2.06857385693810
H          -0.97829296454659    1.88795347489211   -1.68061655356325
H          -0.63199306042210    2.67318954157517   -2.97166887940599
N           0.38845114151516   -1.37438664498322   -1.16689709778438
H           1.02214129561498   -2.06861697061047   -0.69593748152687
H           0.05600927591949   -1.70239013949739   -2.06661865998814
H          -0.42383051902972   -1.20593301357871   -0.52210157684935
H           0.92088577283387   -0.44344809467062   -1.27872263704536
