    26
        -50.47287084  Gyration_radius:  2.45152932974 Dipole_moment: 3.713
 S           1.06858926378712   -1.24852032575394    0.01662307278126
O           0.72927781591986   -0.52627056956265   -1.20996803641577
O           1.82512301310217   -0.37726029260199    0.91659953660474
O          -0.10439071619981   -1.80412155005760    0.65660690793613
O           1.98932035921969   -2.44086981662466   -0.38200574655188
H           2.76028727386534   -1.98403203189442   -0.77406737304738
O           0.38032933678860    1.35005202132966    2.20235010921161
H           0.96183619994669    0.67623232647985    1.76183269531452
H           0.89146502950293    1.70317716566868    2.93207938391144
O           3.51090934910310   -0.43268388214718   -1.16568066669371
H           3.21105645066976   -0.14150035672789   -0.28945792365221
H           2.84308742844592   -0.10764665110144   -1.77912442060452
O          -0.10522124148897    1.96771974256590   -0.55529610073500
H           0.13419051831792    2.03854074710219    0.37710149194447
H           0.26720037787648    1.12074040269741   -0.86415604388303
O          -1.75184406614594   -0.89160610933686   -2.12311388888312
H          -0.83820261303026   -0.85543350252946   -1.77111970430779
H          -1.66994042333080   -0.84793896781401   -3.07717334812322
O          -2.63222437748763    1.11941304611733   -0.59578577902517
H          -1.81057146185051    1.65373757316173   -0.69079123818513
H          -2.51703439161178    0.38848712988343   -1.24097100238742
N          -1.85123040733712   -0.07505476985418    1.55618265822246
H          -2.55408937562161   -0.42771459358074    2.19580612806350
H          -2.29408146393327    0.42657563321585    0.69087435356432
H          -1.19960094522940    0.57827932343993    2.02269706370014
H          -1.24424092328152   -0.86230166207132    1.18995785123881
