    26
        -50.46862040  Gyration_radius:  2.50720614002 Dipole_moment: 3.948
 S          -0.05335545087292   -0.15399448779396   -1.10865870516297
O          -0.93731999800237    0.13371671930299    0.04115858669612
O           1.30597421694751    0.28964163489108   -0.81395953160752
O          -0.10381419065154   -1.55883812513976   -1.45070822129865
O          -0.59097448188978    0.64814532929429   -2.30959437079708
H          -0.60618989640186    1.61125869876870   -2.02511088273506
O           2.08671731788818   -1.89065875477451    0.39329700958032
H           1.96187171368540   -2.53480743451118   -0.30946990098265
H           1.96281080247408   -1.01865287825850   -0.05110817082716
O           1.40131045841707    2.76448051625347    0.18037653982503
H           1.57725051564051    1.86628942862559   -0.16237004516589
H           0.88607214387123    2.62216960819607    0.99601694814625
O          -0.48799299413341    3.11263768377397   -1.56802354456333
H           0.24503457515686    3.09191380580060   -0.88233135553417
H          -0.14972680133446    3.62911444207385   -2.30207503070280
O          -1.40600760390847   -3.43144867124411   -0.13636173065746
H          -0.92622914144785   -2.82293646759546   -0.74705732499971
H          -2.31908361341211   -3.42503436107435   -0.42735373679886
O          -0.59457709053945    2.02216985127799    1.89182535848129
H          -1.27967344506334    2.68348600434247    1.77822626230783
H          -0.76469226959464    1.34503740106479    1.20504539881614
N          -0.24680474269092   -1.80592209961959    1.60790020721902
H          -0.60010845013507   -0.94253160985202    1.08775962623833
H          -0.34094657836947   -1.71852044371033    2.61390280571431
H          -0.78479276281363   -2.60627366064131    1.20349012992238
H           0.76524777717741   -1.91044213945998    1.29518367890092
