    26
        -50.46836259  Gyration_radius:  2.5382313343 Dipole_moment: 1.237
 S           1.31130153951462    1.04392209992050   -0.93319765511823
O           0.01580678272640    1.66897255448593   -0.68543711268960
O           2.33205554255741    1.51921610186305   -0.02170166101477
O           1.19482706203042   -0.40047795955613   -0.97906078482392
O           1.77158337905594    1.50720901888052   -2.37490352024050
H           2.21173205929164    2.32687847618629   -2.17684089688554
O           1.78079237754198    0.47395942149388    2.29706600100192
H           2.41221284140979    0.80944694715092    2.93585561356481
H           2.03540466930955    0.87124128133389    1.42672521899892
O          -0.86745515146910    1.00163343936646    1.75629281471272
H          -0.01934373747075    0.88911576496724    2.21652858215966
H          -0.63870669737417    1.45361195263573    0.92141328642285
O           1.54014515517068   -2.14017669663008    1.35458252875719
H           1.68284661331436   -1.33794110757348    1.88242631951654
H           1.81140594865917   -1.89189089085542    0.46311184616802
O          -2.89270403866395   -1.68392596904508   -1.25262883054444
H          -2.69479944804026   -0.77399996346228   -1.57204884743662
H          -2.79000049093325   -2.25819871011450   -2.01286306164067
O          -2.09657498435241    0.76302648335689   -1.99773199128480
H          -1.27149013422896    1.07070560364182   -1.56174185594766
H          -2.72884426201061    1.47427933115751   -1.88011039803934
N          -0.84913920715894   -1.30235954772095    0.44695730441942
H          -1.69682756152989   -1.64415572910324   -0.05176087302857
H          -0.15008401989251   -0.95201010123086   -0.25525057680066
H          -1.06579137779559   -0.47427269880037    1.06518258299568
H          -0.33835284966126   -2.01380911234871    0.98913593677678
