    26
        -50.46547023  Gyration_radius:  2.52315220774 Dipole_moment: 4.988
 S           0.74169239233739   -0.29856813536740    0.37455997598920
O           0.74529034851439   -1.22159683078697    1.48064677273480
O           1.58041452473350   -0.67574704488351   -0.74714352182793
O          -0.70855781811811   -0.23999309996924   -0.21813832309974
O           1.05205070085544    1.08506723716331    0.79454250081311
O          -1.38168548975176   -2.49259685776728    2.44789220486142
H          -1.46289446876526   -3.33745094509588    2.00419582557814
H          -0.52843827895347   -2.10962837591423    2.15473216334588
O           0.69367116394432   -0.95155202561517   -3.21047457509385
H           0.41883501285142   -1.85502365952551   -3.36986088533212
H           1.04843898195048   -0.93481774891613   -2.29185268641156
O          -0.18169598861824    0.90779477284088    3.15577044136794
H           0.34182529504564    1.11352271344105    2.35919653806611
H           0.17688761645433    0.07627452591976    3.47911688899049
O          -0.80557763588731    1.15925442272500   -2.58414745975324
H           0.52872850720280    1.74858098078274   -2.05971722571246
H          -0.41960770729806    0.40482620478015   -3.07887846205087
H          -1.13093846552715    0.75646564223503   -1.76257901398628
O          -2.24124754099517   -0.03466427724142    1.76057756139692
H          -2.22228053918782   -0.95586899779565    2.08815211494563
H          -1.65558872555913    0.45955341384379    2.38152031945690
H          -1.37959972250795   -0.13807852930076    0.56715750646429
N           1.48391410765189    1.89314548174786   -1.57577836723062
H           2.10268516708543    1.14229962435729   -1.88685060588536
H           1.32381104955150    1.68639513341539   -0.51779834942443
H           1.87986749299296    2.81240636492844   -1.74484133820277
