    26
        -50.45198895  Gyration_radius:  2.60441199587 Dipole_moment: 2.749
 S          -0.68648773958227    0.17809600494236    0.07920468510786
O          -0.76532228418783    1.57364401023185   -0.55076748736475
O          -1.66436345468733    0.25305620714122    1.21975121371674
O          -1.09381598716001   -0.80622850734875   -0.89797456781074
O           0.65247073459967   -0.04654911591118    0.58371124786195
O           0.89826716448446   -1.84991113961792    2.52633725087035
H           1.37371713598591   -1.43108199026044    3.24598007032051
H           0.93750371543624   -1.22872974885809    1.77024994025258
O          -2.08602996563191   -3.07433888550051    0.07375390511991
H          -2.96151595430569   -3.17611130978216   -0.30406954388281
H          -1.67101058128644   -2.31731396551507   -0.38971317536977
O           2.21516575353748    0.62293213968184   -1.56346970245093
H           1.83550900998284    0.22736161655751   -0.76248295638348
H           2.33591419635579    1.56905973062201   -1.33359526856698
O          -0.04740888567296    0.83433310280636   -2.82208868158135
H          -0.53011209544451    1.40231392532713   -1.55306067364536
H           0.91123261628400    0.72858582342939   -2.55120047252288
H          -0.44692643608175   -0.03856495857804   -2.71831898095631
O          -1.72518085458781   -1.89913259919568    2.39271425679600
H          -0.76146755759916   -2.02508117414355    2.59039925141078
H          -1.73915239006135   -0.70858893373594    1.80442888098035
H          -1.92423835655183   -2.50619523264499    1.63329648635175
N           1.86560660547418    3.21050849035287   -0.71418030935852
H           0.92562753230500    2.97656674855039   -0.41137644123088
H           1.79108789268985    3.92844071673520   -1.42394519912645
H           2.36093016570612    3.60292904471441    0.07641625146144
