    26
        -50.46709416  Gyration_radius:  2.45437337568 Dipole_moment: 4.933
 S          -1.70512137764087    0.19483038999629   -0.96244389760001
O          -0.41018689597393    0.15473527760951   -1.63197713229517
O          -1.77253982995797   -0.84851801106484    0.07021152103437
O          -2.06519849476774    1.48325385779309   -0.44851882020702
O          -2.75736421172530   -0.21240191922444   -2.07075131816991
H          -2.25538208417323   -0.82160507646825   -2.60156673890319
O           2.14543882848054   -0.47734136169412   -1.08935193681936
H           1.20143423774139   -0.31876474516270   -1.29653623156326
H           2.41176959840303   -1.22200506147957   -1.63051238201710
O           1.71938901089129   -1.33293604967078    1.42469001091433
H           2.10221953098898   -0.93102513343593    0.61912135935239
H           1.17760494694948   -2.06526087919466    1.06922784946642
O           1.24031726220109    2.29064793806119   -1.15828894504088
H           0.54554785687088    1.68802571607635   -1.47541215161804
H           2.03166140347103    1.74655271376910   -1.09453633846673
O          -0.07398885573539   -2.87222579989260    0.09229550069133
H          -0.71664765929601   -2.13315898025794    0.00668657116874
H          -0.56922848653365   -3.61505423166617    0.44016208514010
O          -0.20773397721607    2.69763309827578    1.04912638312303
H           0.46807504856909    2.74894759172770    0.33893727881830
H          -1.03694057801708    2.54967274300989    0.55763894218416
N          -0.29370225568790    0.26093997822458    1.98095721908312
H          -0.99737376126379   -0.15412247685951    1.32465307928237
H          -0.15639607609646    1.28714647263201    1.68559321883878
H          -0.62752600918104    0.21462789712113    2.93794938364256
H           0.60187280870097   -0.31259396822311    1.86264545995294
