    26
        -50.47030179  Gyration_radius:  2.49872979687 Dipole_moment: 0.722
 S           1.84963174617885   -0.75088462136434    0.19239395202706
O           2.66436730730868    0.40046471950019    0.50370894089858
O           0.91510549848224   -1.06977269574034    1.27053580013398
O           1.18270045405228   -0.66126379398396   -1.09552095968115
O           2.83844508799142   -1.98455276042619    0.07801760444235
H           3.52541467106317   -1.77584751172350    0.70306377070294
O          -0.02569220108875    1.57382829187721   -1.71292673362434
H           0.43523992257960    0.72439510341373   -1.51096792971203
H           0.11601431278951    1.73614873232786   -2.64680718399074
O          -2.30554634634877    1.05106526264599   -0.23212375625372
H          -2.54550705071609    0.11536051201828   -0.40731383365966
H          -1.64779340227314    1.29651463378857   -0.90499673468808
O           1.17728362556659    2.60280568806797    0.57625281100667
H           1.88063368478964    1.91973195601524    0.57834404941315
H           0.78716254261885    2.55614807348959   -0.31154169712066
O          -2.72134428452412   -1.55760408304007   -0.66951425394081
H          -1.87255294045702   -2.04846015887482   -0.55815323273423
H          -3.15403710046924   -1.94201542161660   -1.43239397411093
O          -0.34138577129723   -2.74371493739523   -0.43993076976652
H           0.20092518655253   -2.14347859138588   -0.97807083971139
H          -0.05407507551121   -2.53733472447372    0.45950324500043
N          -0.59493587771118    1.04824517936233    1.73963983369810
H          -0.92956491272570    1.19379463581540    2.68511739533851
H          -0.05890454681491    0.14766239330791    1.65827873043148
H          -1.39935033415363    1.03705853408570    1.02671361446187
H           0.07776580411201    1.81170555430892    1.42869215143784
