    26
        -50.46903410  Gyration_radius:  2.50569815858 Dipole_moment: 1.836
 S           2.06680063912564   -0.49041116838420   -0.48579744996988
O           1.62068365683843    0.26390876606854   -1.64842204130417
O           1.62644200736899    0.15648704571545    0.75891189916366
O           1.72441570971318   -1.88442558180164   -0.51395701800471
O           3.64552073387252   -0.39133133307549   -0.48738195861999
H           3.80436073667329    0.52977077157603   -0.66739875597211
O          -0.85010529382940   -2.51212041584662   -0.33929652581483
H           0.11801403638891   -2.55861436193565   -0.47110414364918
H          -1.14057100554427   -1.85522306676496   -0.99585855728388
O          -2.27397118920458    0.87902584933040    2.02701446080278
H          -2.24747588408408    1.19463332870253    1.07931776231421
H          -2.06675248361568    1.64886890545659    2.55909130512898
O           0.72164670563243    2.45040922370647   -0.25269704873093
H           1.05332101253657    1.71761303299765    0.29931341739110
H           0.99221194451273    2.19711267970944   -1.14256211232660
O          -1.87105404788378    1.69626058861554   -0.41342096784972
H          -1.71590295592054    0.94855133184857   -1.01195402213323
H          -0.99922393243558    2.13807865576978   -0.33077111326749
O          -0.89334681246141   -0.35660960165200   -2.01934246967343
H          -1.04607424130981   -0.40589890762468   -2.96462610778114
H           0.06344826095668   -0.13438705921213   -1.90751218349011
N          -0.47095340784358   -1.05178373094123    1.80933907156676
H          -1.21757631227990   -0.31730922183833    1.96940065856833
H          -0.76287470295063   -1.70596101790792    1.01585261552673
H           0.40990549878151   -0.57676792429517    1.47780510752954
H          -0.29088866302764   -1.57987680821360    2.65605615788915
