    26
        -50.46547036  Gyration_radius:  2.52316333911 Dipole_moment: 4.991
 S          -0.50407193218288    0.27833854134038    0.66926471918428
O          -0.66576370424234   -0.89630679924826    1.50472697764036
O          -0.25866738443033    1.50741337498749    1.37961099694476
O           0.74692208559947   -0.03871810096402   -0.22081002329820
O          -1.63975964413056    0.38878897743585   -0.27164111784242
O          -1.16345037471568    2.93108118933501   -0.93364318782332
H          -1.49126642355746    2.02845900931112   -0.76407196359719
H          -1.05164331210305    3.32103410466247   -0.06190188986039
O           0.79835420931313   -3.07191275882243    1.27533275238420
H           0.28232885426138   -2.25020284592289    1.44430083656183
H           1.56664110722590   -3.02180738380564    1.84496653236831
O           1.88983561999910    3.05153554263965    1.10814071157629
H           1.07659596091982    2.54549466020166    1.31615397947658
H           2.54534692340559    2.78219872525619    1.75243457841215
O           1.33516218095710    2.12191662220859   -1.35734326873974
H           1.76281914243330    2.59411059857562   -0.61536995684062
H           1.01794964199838    0.82681877017413   -0.72573124479627
H           0.43987142602062    2.52998938561217   -1.42573091391237
O           0.61799442438807   -2.55166621374745   -1.33094661611964
H           0.86805616329914   -2.97224848466216   -0.48038753656508
H          -0.89394609288801   -2.39106935222044   -1.02909670816560
H           0.89649353712351   -1.62744964962272   -1.22418877515799
N          -1.84581701679123   -2.12350863838843   -0.59344725097495
H          -2.63637626295942   -2.51700127610945   -1.09402933881915
H          -1.86672021028257   -1.03445134760899   -0.55312732977477
H          -1.82688891866479   -2.41083665062022    0.38653506773707
