    26
        -50.46761778  Gyration_radius:  2.51150702613 Dipole_moment: 4.154
 S          -1.33311949728954   -1.14594129743409   -0.57220085050878
O          -2.40803861577573   -0.55288746690239   -1.32579332247793
O          -0.02334214588781   -0.91690505420797   -1.18970929502179
O          -1.29562731927890   -0.78623945592675    0.83346371166957
O          -1.58337986782478   -2.71068465726787   -0.62829650821284
H          -2.25358028794636   -2.76318990031215   -1.30093685543207
O           2.89529305380242   -0.59148939050221    1.82793054662876
H           3.51882934746302   -1.21851550330482    1.45813320572818
H           2.09369345648524   -1.11693189193681    2.06260767488708
O          -0.74363616302312    1.80627585978713    1.37257297566635
H          -1.10576945543561    0.91094870971111    1.48408677807664
H          -1.20578590000471    2.13962074516469    0.56823615192916
O          -1.75166025184185    2.05438598128534   -1.06230772037839
H          -2.17319891324553    1.18265375115546   -1.16458383706929
H          -0.99988947928525    2.04538904321366   -1.67679991235958
O           0.63888436840956   -1.95154050838155    2.19242588571666
H           0.26486535692007   -2.04507351572973    3.07033665667955
H          -0.07753180944073   -1.56826325558415    1.63874536162939
O           0.38903303542460    1.27773481627086   -2.65661981735977
H           0.13169475537806    1.20617025625633   -3.57672739238894
H           0.22342891071288    0.40032463138846   -2.25548404930314
N           1.38629836505110    0.88328640475495    0.17773907448993
H           1.78914067131581    1.52174402612597   -0.50213893882738
H           0.90356414201590    0.10524947227430   -0.33575828655309
H           2.10333882347123    0.46078959973973    0.81262637164506
H           0.61649543982809    1.37308857036437    0.74845238114703
