    26
        -50.47304515  Gyration_radius:  2.41222705266 Dipole_moment: 4.416
 S           1.17139258893228   -0.66375031534420   -0.42394722603592
O          -0.28632743623491   -0.69087702492381   -0.62167412371551
O           1.59289297407708    0.65760175555633    0.02934690527598
O           1.57951820430620   -1.71055975139188    0.50043348457445
O           1.83269848016681   -0.96572585791803   -1.78275141810907
H           1.39082853394752   -0.35214747834379   -2.44040565281555
O          -1.75415633895234    1.39214497659593   -0.01779715458512
H          -1.22481672427986    0.61239138788437   -0.31335855518194
H          -2.67339299241969    1.14722498833829   -0.13139993999714
O           0.39451729214493    2.49595804414266   -1.46376133138668
H          -0.48817152722570    2.44786571250367   -1.07178113742801
H           0.95800625165326    1.95604656343414   -0.87129539814462
O           0.01115311378924    1.24041976663646    2.07088744600856
H          -0.76138369685312    1.48997369743051    1.53357487617970
H           0.73755727750450    1.16396658284086    1.41410323610303
O           0.75308229434479    0.74932284352720   -3.37779471992778
H           0.53185950185065    1.47846934608933   -2.73554042360235
H           1.42743156161511    1.10494540263811   -3.96058185222135
O          -1.89651903979182   -2.19879665597340    0.79772156475024
H          -1.87358198498499   -3.09179800074367    0.45069837207764
H          -1.35925481358068   -1.65539341827212    0.17169958542684
N          -0.01970502970129   -1.33553606215856    2.48981951228062
H          -0.89652610585158   -1.73882890603735    2.09007626679627
H          -0.08226742382270   -0.26479613682657    2.47700668543384
H           0.19302604670591   -1.69809132344081    3.41237343936208
H           0.74213897266095   -1.57003013624160    1.77434756888433
