    26
        -50.46912059  Gyration_radius:  2.50511293822 Dipole_moment: 1.694
 S           1.44862863364839   -1.41189153140487   -0.00486901882579
O           1.13549849705356   -1.32202278723928   -1.42151529377818
O           2.32811627342006   -0.35039948676739    0.44495683087917
O           0.25590011218672   -1.50764860708614    0.82184576420399
O           2.23370654974509   -2.77149345307342    0.21151318740263
H           3.11097713562146   -2.57432998703924   -0.10168586871710
O          -1.15736208921609   -0.16757369631138   -1.94021420176782
H          -1.40618268355469   -0.41223544543836   -2.83288276995427
H          -0.31686645041887   -0.65137680349401   -1.74614797388664
O           2.26980940891567    1.19878934106127   -1.69528727191876
H           2.46840940094486    0.75825066039347   -0.84531774106491
H           1.99171650206291    0.47199343907907   -2.26274830747636
O          -0.08591489274380    2.12221655105377   -0.86839098549974
H          -0.64627804105830    1.47794421513492   -1.33377927014772
H           0.82185333930064    1.97634765864713   -1.22599251971102
O          -2.39958492362307   -1.07135135307247    0.36978846961809
H          -2.23378797232665   -0.68090061219364   -0.50279466976320
H          -1.54263347072796   -1.45697503421811    0.61709283921202
O          -2.57023039208473    0.76415821939403    2.26076485129351
H          -2.86379190865758    0.31556978951428    3.05476395990037
H          -2.66143019761817    0.10326386835456    1.52548944606223
N          -0.02644258610216    1.04864853787406    1.51752763124184
H          -0.04506098264095    1.56928099753049    0.57371859819354
H           0.18096662081903    0.04082078068411    1.31866008716322
H           0.69446784305814    1.43539350927033    2.11706355524092
H          -0.98448373600309    1.09552123935480    1.94844069210219
