    26
        -50.46074795  Gyration_radius:  2.63065556905 Dipole_moment: 3.269
 S           0.46507642337142   -2.20088720395497    0.29261381911434
O          -0.93402949885810   -1.82021594013693    0.44714068003931
O           0.91127130000058   -2.13937621080257   -1.08283218265069
O           1.33339180348489   -1.50892970302566    1.22847033286039
O           0.54909664209009   -3.73564014058731    0.70927468946382
H           0.16859584378384   -4.19052889123768   -0.03637855711467
O          -0.90672825813176    1.88339253341767   -2.61778957624916
H          -0.29250146531531    1.41276203730519   -2.00770656904209
H          -1.02538855015048    1.30223720377643   -3.37070968286545
O           0.97459833360392    0.97539453048652    2.18962817366826
H           1.68132217480755    1.41225738064908    1.70590180000673
H           1.12405446094202    0.02079669609385    2.03529119036963
O          -2.75899191981020    1.96207600338568   -0.70727633964788
H          -3.47606737158300    1.45176310776281   -1.08752024217716
H          -2.09622072993376    2.08101382589165   -1.42835719215053
O           0.49920497046806    0.45392324624824   -0.88413704121733
H           1.40894416648405    0.68540247715163   -0.62823345204670
H           0.54505746621332   -0.49779527110554   -1.09106484679101
O           3.03192288882268    0.22001479237037    0.10247310097154
H           3.61224370466748   -0.20282819914721   -0.53209987475863
H           2.54952359353722   -0.50690373228526    0.54929165715038
N          -1.48847137734531    0.60446125775710    1.24784994673666
H          -2.10799968654833    0.56261356784490    2.05056155870561
H          -0.54765475443298    0.96981986384524    1.54470424948720
H          -1.30274644492236   -0.37937178629592    0.88530991784390
H          -1.91750369525762    1.18454855463060    0.48559445033046
