    26
        -50.47362566  Gyration_radius:  2.40499791081 Dipole_moment: 3.718
 S          -0.01706428649901    1.45691339450432   -0.16680692296868
O          -1.29346655729262    0.88785388317266   -0.57652019181315
O           0.68110042974300    0.50465558021303    0.72412292909981
O           0.83285322820185    1.80348475472218   -1.28806079506297
O          -0.28188646107624    2.73783618725159    0.65481547620902
H          -1.15160552923388    2.55638830900104    1.11569013089607
O          -0.75220611609740    0.13378998322066    2.91916777646702
H          -0.31007339593351    0.48404452452340    3.69399479125056
H          -0.14662826031237    0.28945455526392    2.16194852974013
O          -0.21459534910438   -2.02623179930351    0.55346341199333
H           0.04613174508902   -1.08413102623786    0.61416421065536
H          -0.81740066197710   -2.16830901628898    1.28599545938722
O          -0.99374218662457   -1.35304723482113   -1.96715210995591
H          -0.84439158240706   -1.90363362801024   -1.17715339584767
H          -1.29272748137721   -0.49650821089789   -1.59318340142159
O          -2.46369657308454    1.80108610374380    1.63624631663023
H          -2.49208221499835    1.34201293208342    0.78112331276745
H          -2.08046868910278    1.15962230687626    2.26589032735675
O           2.51294505582212   -1.30378540642597   -0.14727491945861
H           1.99723711581169   -2.06092745013263    0.15346876149427
H           2.09404190600648   -0.53453500136603    0.28307764914442
N           1.41820931861424   -0.45735721852236   -2.42048100857552
H           2.01337435693938   -0.90455273728752   -1.67656734570574
H           1.85360374386621   -0.48281336300904   -3.33560536620230
H           0.45232123450119   -0.92115995809762   -2.40565784998335
H           1.25021722051089    0.53984951572786   -2.08870576607851
