    26
        -50.47416405  Gyration_radius:  2.42048935474 Dipole_moment: 2.167
 S           1.04293273217119   -0.14556229125177   -1.70037757764623
O           1.52769619549545    1.00680510901655   -0.96265506086187
O           1.48544009974669   -1.39611498275902   -1.10436065445944
O          -0.39023013625772   -0.09430201567802   -1.93140832728406
O           1.70324483123628   -0.09604219772340   -3.13811204636598
H           2.57791949628819   -0.42552180564657   -2.96366595596562
O          -2.01348029676142   -0.89415874032743    1.27607765407789
H          -2.32518758242898   -0.16254046057310    0.71680529126623
H          -1.72316031423099   -1.58624987644725    0.63765877581283
O           2.34921251749225   -0.48487410943154    1.18158610518236
H           2.07102253166300   -1.00082026584851    0.39169724350820
H           2.59419784322524    0.36685921184042    0.80128442198983
O          -2.22268757373862    1.17815157505639   -0.56075780896180
H          -2.94080132031351    1.40743105247171   -1.15225989945120
H          -1.54468028823107    0.72576437517284   -1.11749426867087
O          -1.03343331726076   -2.38247452084557   -0.70760376913781
H          -0.12134548543972   -2.66880236254180   -0.59121028050530
H          -0.95086384842492   -1.61959426661950   -1.30815910694833
O          -0.07271024354048    2.38009326383059    0.66095045513501
H           0.57032518012902    2.02022085948257    0.01261040379992
H          -0.94327526408742    2.22562520795444    0.25892416941324
N           0.07382596377657    0.32283306698322    2.29120511268671
H           0.06537258166719    0.45324995433484    3.29618609354501
H          -0.76245886101732   -0.26227494151190    1.97068907139848
H           0.00527497760359    1.25256685728757    1.77184506455908
H           0.97784959123445   -0.12026769623456    1.97054490388594
