    26
        -50.46547031  Gyration_radius:  2.52305383914 Dipole_moment: 4.985
 S          -0.80601971224146   -0.12492300017672    0.33758996849046
O           0.73666333420118    0.12820802995862    0.22079430542940
O          -0.93448437806136   -1.56682320917523    0.42873283477966
O          -1.30354000172423    0.60820710331823    1.47356600051032
O          -1.38183509637435    0.35377156224076   -0.93777052601932
O          -1.50064049645848    2.91870458733961   -0.20612021158909
H          -1.56300350597739    2.02897909699233   -0.60041781878445
H          -1.91392350143280    2.83536588884782    0.65806310328617
O           0.12694649072693    2.23558079547130    3.01606238239673
H          -0.48565165864636    1.63572690299966    2.54115349706387
H           0.47865692321321    1.73235746035800    3.75117576993959
O           1.09157672216206   -3.23396837001481    0.21385951940825
H           1.47246364877505   -3.41313324124037    1.07414683625815
H           0.32120167547846   -2.64239387057563    0.37701242699981
O           1.91618112798649   -1.51313874855073   -1.64453447035050
H           1.88706571643047   -2.27859660238857   -1.03120316267732
H           0.46239524179587   -1.63118365687133   -2.16906858851659
H           1.80906897443673   -0.74385634080887   -1.06156455889957
O           1.04175144599018    2.60388514131798    0.51031670013341
H           0.18968887624923    2.92759583345713    0.13340764470483
H           0.92446416961510    2.67838402128939    1.47830124168665
H           0.91035528886576    1.14698674256979    0.31855028388663
N          -0.61381674913665   -1.68180980988914   -2.25085756314398
H          -0.93648748630408   -2.41146316205361   -1.61299944957396
H          -0.93332391795618   -1.83416737746235   -3.20221773545050
H          -0.99575313161067   -0.75829576694616   -1.81597843997357
