    26
        -50.47281497  Gyration_radius:  2.40332046184 Dipole_moment: 3.477
 S          -0.57217154495884    0.83374929351464    0.44341806259710
O          -1.14398632180151    1.92469095607725   -0.32702797861592
O          -1.10741330372525   -0.45561112765654   -0.01867919496930
O           0.87490217233183    0.83529676163075    0.44503080106135
O          -1.02863539049527    0.99263686345654    1.93635693068920
H          -2.00574505836622    1.04182764296210    1.86027032083988
O           0.52067050220659    1.88126051550063   -2.37302140546897
H           1.33972872784684    2.19344323448266   -1.98074416319100
H          -0.16524435825925    2.03395025352584   -1.68538186377584
O           0.56945630191317   -2.38803077806158    1.00772066727386
H          -0.15569334192550   -1.82492486931319    0.69066588950200
H           0.88046272221230   -1.95768560732061    1.82496553517126
O          -3.39531250008278    1.00509646024296    0.80740025366899
H          -2.90035937877489    1.58810479848801    0.20882800897597
H          -3.30089121946057    0.12092971720471    0.43868242922945
O           1.28680456915341   -0.45423446929013    2.79832907589367
H           1.26126009530295    0.11950683433337    2.01329119573928
H           0.61192724395756   -0.10857034547175    3.38593715363240
O           2.35632468646474   -1.29058729835868   -0.59868136072447
H           1.85900800862521   -1.90598480101748   -0.00148609510125
H           2.27728641830258   -0.43378899460622   -0.15401255783683
N           0.37981683041505   -0.76912695405464   -2.18385223831138
H           0.14030875423487   -1.37042749617465   -2.96446720935116
H           0.48135575167497    0.24113196370941   -2.46553887115428
H          -0.35292864212444   -0.78029212086932   -1.43204991929839
H           1.28906828533412   -1.07236040295116   -1.67595346646725
