    26
        -50.46975295  Gyration_radius:  2.4448755462 Dipole_moment: 3.634
 S           0.47959550464935   -0.47406286048100   -1.77415693781387
O           1.44269867417283   -0.03858910552512   -0.78065987807977
O           0.38518376052532   -1.90752353333757   -1.89745141072041
O          -0.81845547417845    0.17036012370176   -1.56150043462721
O           0.98008359430074    0.05967288776394   -3.18222187210437
H           1.32962724329384   -0.74061986946950   -3.55782420584205
O           1.53084231268543   -1.34436495089097    1.59966098838134
H           1.69712759177796   -0.90103935106299    0.74886543980518
H           1.09076350447973   -0.68477975261680    2.15081735159782
O          -0.24455260433533    0.76440519526003    2.47625958494522
H           0.24559805937001    1.35310375017523    1.82184424769844
H          -0.44124734139695    1.31462611604296    3.23473651067297
O          -0.71959678553302    2.81933670236378   -1.32987043374701
H          -0.82887230887228    1.85901771790517   -1.48624591590959
H          -0.32019861970730    3.17390247365248   -2.12571152765430
O          -0.34612218453772   -2.85497479358295    0.49245420802261
H           0.43377782432478   -2.55112331438409    1.01292901624088
H          -0.08474171001819   -2.71606773226501   -0.44124502481728
O           0.97952517456012    2.15736909727105    0.67914691930517
H           1.32427623468429    1.41647026688115    0.14401585938704
H           0.34578767582770    2.60655786778312    0.08730726952273
N          -1.72314865505395   -0.68705525396295    0.75330614422252
H          -1.48226562389499   -0.26591966321954   -0.18076323408053
H          -2.72719498263786   -0.73713131386350    0.88484870981270
H          -1.26157229266516   -1.67387199375614    0.72958685819825
H          -1.26691855182085   -0.11769870038161    1.50187177758415
