    26
        -50.46310401  Gyration_radius:  2.5822173016 Dipole_moment: 2.130
 S          -1.30170764477593    0.22015406363864   -1.35328535447158
O          -1.65861449003647    1.61852153814334   -1.32872001308165
O           0.14104529959054    0.02361114778257   -1.52947092529287
O          -1.79753166828799   -0.55103718724955   -0.23615488566023
O          -1.98893951208028   -0.39241532833818   -2.65015305041554
H          -1.91016589591154    0.29602827685752   -3.30437973144933
O           1.79185988711929    2.07894915107713    1.33763276365883
H           0.89422522226694    2.42037091694727    1.46579057800532
H           1.97217103396853    2.22235707015304    0.38701725632388
O           1.05677031333014   -2.89735318552449    1.59306520009219
H           1.77506475141021   -3.38304945766555    1.18513287543106
H           0.26106363365524   -3.06911601465198    1.03591413934120
O           1.87847758443111    2.05268757205260   -1.37041266160354
H           1.17402691256583    1.38604179109597   -1.50147074851698
H           2.61234286937504    1.77803051353851   -1.92205876508273
O          -1.04128781729509   -3.06572793579531   -0.04039831266023
H          -1.32035902308354   -2.13136870721001   -0.17913453735362
H          -1.84134584943938   -3.54060611264740    0.19050067803622
O          -0.99313144633375    1.99754871255963    1.20280511735043
H          -1.22333913500999    1.94117692230728    0.25148118922142
H          -1.77520640331026    2.34590233088690    1.63348829202376
N           0.68037500325520   -0.28781034585133    1.04843650109796
H           0.60951925921933   -0.31043976792447    0.00401884375750
H           1.29865206421766    0.53515714401109    1.30968902373027
H          -0.26848906685281   -0.06490198832002    1.36305312677545
H           0.97452410801276   -1.22271110987546    1.40761339074269
