    26
        -50.46261863  Gyration_radius:  2.48695234475 Dipole_moment: 3.131
 S          -0.16977583387782    0.20794456385234   -2.12931877312452
O          -1.47121605349305    0.77136146715978   -1.81055909489465
O           0.90347747452144    0.91716256428866   -1.43373843197522
O          -0.08076703920589   -1.21841330568640   -1.93915216142543
O           0.02427032739098    0.50080706879815   -3.67610379770062
H          -0.67292530217195    1.13583371304359   -3.79407593128720
O          -0.70845920146837   -1.84845440028005    2.11537321597448
H          -0.13093433531181   -2.33118923376219    1.50937823491281
H          -1.45594287445595   -1.56778215121463    1.57743132650874
O           0.86466323816208   -2.75454507467084   -0.04468004108398
H           0.44886522480230   -2.22485023060626   -0.76558558921970
H           1.20954723490578   -3.54474187390639   -0.46219823755133
O           0.51012855256808    2.91811622273568    0.21836211443462
H           1.34540625616951    3.38811748597472    0.18887307457239
H           0.57277284396330    2.22922382957958   -0.48722841988422
O          -2.17823637360313    0.04945030922934    0.56363496428863
H          -3.01598048122678    0.49525603514774    0.70064462224853
H          -1.91270225919699    0.26680686209756   -0.36870092424924
O           2.00549892647024   -0.37797028116363    0.61720960503506
H           1.76075166764629    0.06171367790191   -0.22396600348726
H           1.77006801588864   -1.31554365079824    0.49377576256981
N           0.06962762849509    0.86034596251711    1.86149580025082
H           0.20645616858454    1.81135499815299    1.44852742699115
H          -0.82083387700833    0.46851086226940    1.47718536981117
H           0.87727170748433    0.25491306764627    1.48842815713332
H           0.04896835396783    0.84657152169360    2.87498773115281
