    26
        -50.47046789  Gyration_radius:  2.50713699264 Dipole_moment: 5.087
 S           1.22583575432936    0.03088181133641    0.00469163611341
O           0.50992318707100   -1.18966056156071   -0.39405158939960
O           0.68630105788867    1.18007661325563   -0.74212070248569
O           1.13865233666846    0.24051593768758    1.42917481478552
O           2.70719881327394   -0.13898731506585   -0.38967014171418
H           2.71617937108295    0.06769865036470   -1.37009674451551
O           0.73681156802577   -1.75044503534011   -2.95870055515189
H           1.21257111339444   -2.57968121351206   -3.03132390671150
H           0.59988858407229   -1.59845685685057   -1.99658670862297
O           2.23178197019009    0.48357968005670   -2.83321678380265
H           1.72827551024310   -0.30306152770149   -3.13195571345560
H           1.57549475774438    1.06863388196044   -2.42621123926895
O          -0.69403733197166    1.60117176655645    2.96001081055464
H           0.23333269148173    1.48698167260425    2.70204161538360
H          -0.95995753158848    0.68956639594853    3.20725999469998
O          -2.03242918809206   -1.06107076814519    0.08589069278696
H          -2.48806605189991   -1.55611158167150   -0.59702435476564
H          -1.06159944772430   -1.17284540240770   -0.09771777278854
O          -0.89580259953223   -1.05635463069023    2.73975807258380
H          -1.47840207315209   -1.32978080013634    2.02287003775135
H          -0.04179909184264   -0.85522003103939    2.31964650084698
N          -1.55873308346694    1.56941261206171    0.49283618103483
H          -0.64155705047135    1.53636056760393   -0.05456785243501
H          -2.15964426531767    2.32075937813277    0.17154143588691
H          -1.99750701196507    0.63618798278340    0.35583343700653
H          -1.29271198844148    1.67984878376837    1.53168883568566
