    26
        -50.47611856  Gyration_radius:  2.40927670395 Dipole_moment: 3.949
 S          -0.04440340173161   -1.08510822811009   -1.40179700728214
O          -0.67359081467143    0.21959631661498   -1.12657110547575
O           1.25622522115749   -1.14952903028570   -0.72027858061447
O          -0.91648153356315   -2.16696990191901   -1.04008536300978
O           0.22786890322558   -1.12793764565720   -2.92988409025859
H           0.93066182241141   -0.45096832818615   -3.03751768583297
O           2.16710006730106    0.61242983955647   -2.47259243603308
H           1.90857309792249    1.43180611641130   -2.02584258513422
H           2.23786152032839   -0.04241058569923   -1.75829205291245
O           0.10689863791247    1.62717448484463    1.92219511147371
H           0.47497968961638    1.99271169573891    1.09513746848397
H          -0.83079897235884    1.45337809940641    1.73879923951288
O          -2.26817745134051    0.57613466755641    0.90198690798311
H          -1.71831250915007    0.41430269348613    0.09491445659740
H          -3.13272989156241    0.84323500406163    0.58718494112195
O          -1.54440110067288   -2.00701045791467    1.54695744667374
H          -2.05614327936911   -1.18160317551499    1.50522390156627
H          -1.40331203497307   -2.26005664459824    0.60941345835177
O           0.77132241359975    2.31032476355659   -0.66729725961414
H           0.29666808296726    3.06616528353310   -1.01757650946746
H           0.21825886617694    1.51294878540817   -0.87684396069721
N           0.82187966553061   -0.92237613354907    1.84263162647543
H          -0.10821392405456   -1.44389144870130    1.90392985163541
H           1.51056122271650   -1.28921516595937    2.48958214018711
H           1.13017090108754   -1.04371257258815    0.83689361675302
H           0.63753480145075    0.11058154849003    1.99972844952613
