    26
        -50.46596428  Gyration_radius:  2.62206253532 Dipole_moment: 1.037
 S          -1.57869175902065    0.83646342743469   -0.78052583807527
O          -0.30922251328344    1.52963299642522   -0.63894179873711
O          -1.51572468795609   -0.30090339989004   -1.66864035634698
O          -2.14261530793214    0.48993711058247    0.52108009738304
O          -2.56594690766743    1.88394626861799   -1.44566999436721
H          -2.29029169508847    2.71399330413248   -1.06736467552968
O           2.77869749670065   -0.99657066194080   -1.65424842882134
H           2.01836422976206   -0.90414376497418   -2.27370941243915
H           3.40860255866950   -0.32272392765055   -1.91497600295964
O           0.62703689831710   -0.58922710176101   -3.18268853344068
H           0.32710013034689   -1.22212130541495   -3.83736768015164
H          -0.15651210712442   -0.39780012551184   -2.62025121844689
O          -0.97342423285183    1.33702438109460    2.74238585623351
H          -1.66753642511674    1.21566545495501    3.39238646357490
H          -1.36994843802798    1.07930657622034    1.88201726860609
O           1.50823174804146    0.31812517540690    3.00761499276262
H           0.66105544538194    0.81179187203491    2.96459420461472
H           1.39435958454032   -0.35292621950300    3.68268811682584
O          -1.05145235684221   -1.92907165935948    0.52503463128875
H          -1.24946348586861   -2.16460486130433   -0.38652305509627
H          -1.59555318364033   -1.13090572301000    0.68027987488580
N           1.17029930360122   -0.38907302964353    0.42125639408358
H           1.92306255131304   -0.68522401498227   -0.23827653989582
H           0.69350878517286    0.45557584348740    0.01775215271881
H           0.43851289634414   -1.13214774171737    0.49758974188187
H           1.51755147226192   -0.15401889374814    1.37450375949227
