    26
        -50.47216058  Gyration_radius:  2.41255747513 Dipole_moment: 6.330
 S           1.56886714822582    0.32808881120848    0.69560978099500
O           0.34698670451234   -0.03834649715184    1.44998449878360
O           1.56441203076712   -0.31944703671462   -0.60581802303801
O           1.68370863221408    1.76493243522539    0.60974324520645
O           2.76364074070881   -0.22547269614337    1.51794426566746
H           2.68399773931806   -1.19417694316441    1.37260903182295
O          -0.32074821208368    0.30991085648759   -2.38453806552135
H          -0.32080439949936    1.26587370738722   -2.25617830612504
H           0.43697626691934   -0.00726300278269   -1.85441574757365
O          -0.09589735899334    2.79506942768276   -0.97667245314484
H           0.64740312292628    2.43088745225992   -0.42657900986058
H           0.12362187336059    3.71452959701838   -1.13598809953359
O           2.09449723577580   -2.60548402261728    0.58810832773149
H           2.00979210595050   -2.01302333509047   -0.17874497112970
H           1.18977736928094   -2.90465817309434    0.75478825683112
O          -2.24749577427553   -0.82206622661717   -0.97198003768720
H          -1.62034614878415   -0.53264972491639   -1.67923843036149
H          -1.77968246849109   -1.52698327146425   -0.48678510293836
O          -0.73869457929662   -2.32138038799620    0.81275719924988
H          -0.29925565438552   -1.47203480621646    1.06560153078769
H          -1.20285300909912   -2.62818515509245    1.59343310237736
N          -1.72669354785558    1.22677215693047    0.51361699478774
H          -1.33292093377193    1.97133582783066   -0.09195805030704
H          -2.10030288851279    0.41159470888561   -0.10652164830749
H          -0.90217639182987    0.80084111882678    1.03080320797034
H          -2.42580960311461    1.59133516930278    1.15041850334180
