    26
        -50.46547035  Gyration_radius:  2.52303416955 Dipole_moment: 4.989
 S           0.85553313247277   -0.21893684079262   -0.00922596792471
O           1.30125559412024    0.14355284872038   -1.34107854809048
O          -0.70539018613167   -0.30760495128597   -0.12514515336621
O           1.34886412740313   -1.48076471629314    0.48050445850317
O           1.11863342619772    0.89184334853265    0.93104509497234
O          -0.15117099286148   -3.55309585916700    1.20825453805446
H           0.49811185402347   -2.87145046433445    0.93537113714736
H          -0.27421774107657   -4.12498831308981    0.44983384018471
O          -0.32974037341269    0.69569766435280   -3.33219254773336
H           0.31153736277682    0.42135214965498   -2.63678649136826
H          -0.52964841942364   -0.09600632677018   -3.83269775080590
O           0.79550385786492   -0.57366285730876    3.13929802849492
H           0.98670228793434    0.07640534685495    2.43802404775154
H           1.34106747099491   -1.33584786750984    2.92485794398501
O          -1.77278959835095    1.86852593962407   -1.42519350120280
H          -0.42259109299356    2.51792543367288   -1.02830578077814
H          -1.48902054234389    1.52195150701759   -2.29829990946157
H          -1.74670001313101    1.08941802524399   -0.84605603037484
O          -1.48556766120577   -1.35875383486680    2.01795166033690
H          -0.78814944478891   -1.03221787053048    2.63420987089181
H          -1.07598087852557   -0.72351644383940    0.75068066673735
H          -1.24434313916503   -2.29112217382888    1.84821975864974
N           0.61502985236356    2.69678356156284   -0.78555758317206
H           0.81360475322979    3.67164647427980   -0.58406800633869
H           1.17765574122526    2.33956261891047   -1.55963059103402
H           0.85181061279203    2.03330359118958    0.04598683593988
