    26
        -50.46562353  Gyration_radius:  2.52283805778 Dipole_moment: 2.095
 S          -0.20949711709554   -0.44095139440910   -1.95884043400693
O          -1.05133505559351    0.69052605135001   -2.29256646032701
O           1.09483516329825   -0.01321269875181   -1.44835153392094
O          -0.82383070282932   -1.40977408211678   -1.08563619286958
O           0.07131665212777   -1.17156456257830   -3.34414444161017
H          -0.15501837878672   -0.48293631925231   -3.96010027790719
O           1.57576738386944   -0.82891648643033    1.04803166011298
H           1.44544683711924   -0.69402772214092    0.08579603408031
H           1.95359117158527    0.01501608897730    1.37008352442083
O           2.33793049051623    1.71394792551503    1.65002635038971
H           3.25015099797959    1.91327664859638    1.43310723576907
H           1.79829546421656    2.11096834737429    0.94593721148167
O           0.83197149094052    2.40625529093634   -0.54039951348198
H           0.97138145966634    1.50743846008466   -0.93588213780661
H           0.55544865848192    2.96652101807526   -1.26754003907714
O          -2.00608739220129   -2.89181084201479    0.73564598925639
H          -1.73373251332131   -2.41919241048681   -0.07726519278097
H          -1.47955587516146   -3.69348292130211    0.75091146031500
O          -1.55309710394199    1.30656642535772    0.23843749993937
H          -0.77553203394823    1.89189976048579    0.24084024619175
H          -1.60399648495200    1.00531251662492   -0.69038522055394
N          -0.90983635637684   -0.69824323127713    1.85295064480650
H          -1.26502895388008    0.08971814523875    1.23855557813798
H          -1.41473252615667   -1.57260040376921    1.58008025060681
H           0.12625984215503   -0.82109193774973    1.59536936711327
H          -1.03111510770751   -0.47964166633173    2.83533839171793
