    26
        -50.46414050  Gyration_radius:  2.71019740411 Dipole_moment: 2.745
 S           0.28176955399301    2.39622763558094    0.34525030976990
O           1.33594918492430    2.18405879002256   -0.63304648437655
O          -0.82974452124766    1.46303889701705    0.11183438285947
O           0.72597518978439    2.37137137559812    1.71387212187827
O          -0.29235607541638    3.84309716971785    0.06186985870091
H          -0.34996789132980    3.85192294162388   -0.88841990801404
O          -1.47117738091349   -2.90678015677272    0.54096952811634
H          -2.30014242128450   -2.89185777530711    1.02159181072903
H          -1.70174026550406   -2.69539601844955   -0.39650380248667
O           1.38288284938835    0.20581013750798    3.05653028198498
H           1.24660921118766    1.07034886842750    2.60368085370644
H           1.07698012958122    0.33380362520446    3.95570479272727
O          -2.06101221628330   -2.10939523325602   -1.91312202249978
H          -1.62320352683088   -1.23271894432732   -2.04376306021868
H          -1.85880340301599   -2.62485194138295   -2.69475249111525
O           1.94697663284910   -0.27270769349544   -1.14053891872616
H           2.89591180521810   -0.35399009796348   -1.24389653746009
H           1.77339843326405    0.69237681936418   -0.96972392994568
O          -0.67659154996181    0.14251473144324   -2.21990337511100
H           0.26109679918749   -0.08256328774050   -2.17546325224690
H          -0.83991051217308    0.70814347712608   -1.44019795596093
N           0.21249840930531   -0.84091362729973    0.88054690286945
H           0.95616584799454   -0.89704851804672    0.16065483237213
H          -0.39889967877568   -1.69183634596773    0.84695557596003
H           0.64993399255417   -0.68357732840458    1.81177607200820
H          -0.34259859650581    0.02092250979982    0.64809439448051
