    26
        -50.46610764  Gyration_radius:  2.36644119408 Dipole_moment: 2.672
 S           1.43072318192827   -1.01027401592048   -0.70449885103130
O           1.89387529378645   -1.69560681759030    0.48618650595210
O          -0.00236730283290   -1.07632702650286   -0.88080010374847
O           1.93850492479893    0.35406499202231   -0.78143620367547
O           2.05371495303106   -1.77991892647197   -1.94262871447151
H           2.98824945179826   -1.74020527314608   -1.76741618428817
O          -0.25195942773023   -1.63298247326994    1.96404416716192
H          -0.79646671455886   -2.34924606740610    1.63218898546245
H           0.59367857044363   -1.69561823784826    1.45772000615427
O          -2.73092662624071   -0.46475843962573   -0.88507223439452
H          -2.42594844379567    0.13593005911130   -1.59882684239275
H          -2.10460168907078   -1.19696137851771   -0.94422071370130
O           1.43148195668065    0.83584835757475    1.87482198467304
H           1.60905186827784    0.09604761481624    2.45834013128925
H           1.80752900344284    0.58728389848988    1.01756427386352
O          -1.03497680817766    0.89966134239080   -2.43737215724282
H          -0.49609790109933    0.18202468402515   -2.05791774939390
H          -0.71445651913652    1.70716910431825   -2.02379949770274
O           0.24216898138170    2.27958390514225   -0.25123646186326
H           0.72872105260480    2.80603748155775    0.38811542175881
H           0.89119100374403    1.59907450184944   -0.55446264559058
N          -1.42221214904990    0.64640800400233    1.12770827938996
H          -1.93809925427550    1.12204724290233    1.85997538361219
H          -2.06324859383949    0.25299823329310    0.37357863891803
H          -0.74435642834221    1.30492721071778    0.66347239023976
H          -0.88317238376905   -0.16720799591418    1.52597219102134
