    26
        -50.47522013  Gyration_radius:  2.40340457974 Dipole_moment: 6.304
 S           0.01673277494807   -1.49235673315392   -0.47695457063758
O          -1.17044311707129   -0.66825160518136   -0.73434631069539
O           1.05673629512782   -1.23385066251120   -1.45360575850535
O           0.47725924968949   -1.32890333785094    0.89484635678086
O          -0.43216507523825   -2.98306098189381   -0.60075336442891
H          -0.69399568791264   -3.03929820462679   -1.54108797736746
O           1.94805419564912    1.26368568068040   -1.06625260487942
H           1.75899689444060    0.34229079905285   -1.33083699969725
H           2.21283066892225    1.21404197218910   -0.13846479479456
O           1.89007091220712    0.68338226552114    1.71929844759702
H           1.41212498254224   -0.12273120069346    1.39099843360478
H           2.56367742565999    0.36350879592538    2.32119702262167
O          -0.59955349162400    1.93325901311152   -0.90836067950562
H           0.36331139747929    1.86802485487967   -1.12474432679247
H          -0.92618651001652    1.01340983531737   -0.99361222922435
O          -0.85571740098627   -2.17563183850384   -3.07344849271852
H           0.01929982129825   -1.79393012238166   -2.89605673063917
H          -1.48483047682497   -1.50212102622746   -2.79429027980671
O          -1.84732634976357   -0.37235250915031    1.80054062336953
H          -1.09903957078364   -0.96011397030157    1.98342711957825
H          -1.92714345174203   -0.45650712554800    0.82829922683476
N          -0.53850088049942    1.91861691762877    1.67003346557825
H          -0.60029673343852    2.06958940500829    0.58931567642965
H           0.43965871356021    1.65004282840776    1.87792923053109
H          -0.82891444306244    2.73676747218840    2.19259366033476
H          -1.15464014258297    1.07248946812917    1.86433583644103
