    26
        -50.47098389  Gyration_radius:  2.48968082432 Dipole_moment: 3.838
 S           0.83926139300962   -1.12054066366706   -1.68041630883335
O           1.56262723235185   -0.60597030406298   -0.51906589375103
O          -0.32132078374404   -1.90019590513845   -1.26186196342074
O           0.53605668143498   -0.10488828770149   -2.65299542010594
O           1.81558105280066   -2.14430617507955   -2.39179894576379
H           1.89839507949061   -2.85159518360559   -1.76026147628517
O           1.22475816489965    1.99529144719553    0.05691517713967
H           1.47369607063934    1.07798994385302   -0.17087654737739
H           0.51140694735507    2.22272521772995   -0.55828531958855
O           0.38078377541941    1.83611858777170    2.51556200194537
H           0.69843785078910    1.99988637389306    1.58217791357104
H           1.17521001108257    1.72596542687501    3.03997071280733
O          -0.82738338342108    1.92946357260100   -1.81056451934228
H          -0.28942623874621    1.19729422949529   -2.20616014669534
H          -1.13152525378449    2.46503613045720   -2.54491428703739
O           0.48584910425665   -2.19168649462331    1.23422996273037
H          -0.04294368281876   -2.47328071350960    0.46714081114289
H           1.12227400134986   -1.58152490812572    0.80285834040998
O          -2.06797158695505   -0.06872076899021   -0.42782550002109
H          -1.78660861261707    0.74555103642432   -0.88297228110177
H          -1.54025802511512   -0.79028435983139   -0.83042690749493
N          -1.15634216639066   -0.27095010515606    2.02550867214042
H          -0.50314701607569   -1.09366658740983    1.87908637469761
H          -1.61394909443605   -0.10225161941955    1.07420324126179
H          -1.85723430428521   -0.47375812961276    2.72915090205574
H          -0.58622722650969    0.57829823962338    2.29162141691207
