    26
        -50.47562128  Gyration_radius:  2.39543957024 Dipole_moment: 6.099
 S          -0.53156168040153    0.70096446932753   -1.55555904135333
O          -1.19200975207827    0.80425022118474   -0.24354561050380
O           0.91744924423616    0.64242834769939   -1.37305102891333
O          -1.04510786389077   -0.41574670608625   -2.30932015412357
O          -0.86606689349813    2.00933886553554   -2.32778107607281
H          -0.35800143860501    2.67977279489096   -1.82931986088261
O           1.80559500410496   -1.52102624504215   -0.19343728977129
H           1.63286701413045   -0.69526026761446   -0.70275420637125
H           1.14978416145583   -2.14994194987233   -0.54238727196877
O           0.05786644877712    1.82227499794114    1.74578403979648
H          -0.61957161064163    2.19089069394710    2.31568544613366
H          -0.42774595680829    1.47691251277902    0.94186846699433
O           0.86379426020215    3.17495800884024   -0.67975115406482
H           0.70078767654393    3.10986481782801    0.26946213752424
H           1.24053810961831    2.31059040984668   -0.92590582108106
O          -0.49840688873680   -2.66923593729702   -1.15139204886915
H          -0.69161285076699   -3.38208730304976   -1.76249638115317
H          -0.71401874341386   -1.83103418044605   -1.64014577478070
O          -1.64270451801901   -1.47279902987393    1.03810868211122
H          -1.40402797743305   -2.12088803458955    0.35358889636318
H          -1.69328138430903   -0.62092622395104    0.55182781687117
N           0.68011800008101   -0.81038667935767    2.04201593742290
H          -0.30397095471005   -1.16132870874989    1.80331786609536
H           1.27798160543822   -1.10486095762364    1.19299011993281
H           0.62695276662197    0.22959867811490    2.07277547681301
H           1.03435423225277   -1.19632261431584    2.90942185387153
