    26
        -50.46272384  Gyration_radius:  2.49479317467 Dipole_moment: 3.788
 S          -1.04396480038739    0.51976299512896   -1.45848212737291
O          -1.66046447218816   -0.76222055533610   -1.20014448952466
O          -1.21236672622176    1.43492311884998   -0.32867239898874
O           0.33639446521511    0.43286798515445   -1.88120211196896
O          -1.83850334128776    1.16366416246376   -2.66884571976688
H          -2.74489123800433    0.96592575364877   -2.45492354855972
O           2.37325135984145    2.04812297474888   -1.51687564324663
H           1.60034525665819    1.51124775149940   -1.80833689889218
H           3.15057835688755    1.59294071756406   -1.84445234122731
O           1.08852342200724   -0.59276463092031    1.74008473813347
H           0.13710153721827   -0.50392617912018    2.00438177176526
H           1.05246852647578   -1.17684331326373    0.95576418173695
O          -1.51950877527054   -0.24843211664450    1.86150507494199
H          -1.62874629055356    0.27915929150176    1.05568183707709
H          -1.79054102364765   -1.15788848607431    1.64341272152004
O          -1.37964244422321   -2.98620495145185    1.46684686082881
H          -0.83993611222402   -2.93889989885532    0.66879641732379
H          -0.78348816781287   -3.20718617878058    2.18569147584569
O           0.51275766791684   -2.02636288399601   -0.49940554509920
H           1.11645440932630   -1.85324905511375   -1.22446252060860
H          -0.33000779722536   -1.59843991699982   -0.77895264330814
N           1.10109151292106    1.84503362266551    0.83293750685072
H           1.77531345531677    2.02297095273411    0.05745713775353
H           0.13876520950829    1.80729889472854    0.39269507423752
H           1.24637543874735    0.86266807684310    1.25465646617495
H           1.14264054103620    2.56583185901452    1.54484474437338
