    26
        -50.46804509  Gyration_radius:  2.44165535001 Dipole_moment: 2.591
 S           1.33621328013654    0.51914811230460   -1.30681029230103
O          -0.01036268383041    0.92550451014611   -1.68272116102687
O           2.04934007852876    1.59906623063021   -0.64362447398594
O           1.34868478118841   -0.72279000800831   -0.56231584780028
O           2.11844171127813    0.23109773134418   -2.65075276444865
H           2.25385214764642    1.11313495466579   -2.97932117122927
O          -2.03845214395650   -0.65056980857239   -0.88642993877998
H          -1.84171545142022   -1.54832280179473   -1.18011705680454
H          -1.31426304766878   -0.10876772533953   -1.25364156778589
O           0.88524073154554   -0.60291167224248    2.09450754189135
H           1.25659245520040   -0.78728962674662    1.21233532080138
H          -0.01274051522927   -1.01921278957701    2.06727581297876
O          -1.61099492645973    2.14001226724098    0.09864022426858
H          -2.29578675301253    1.46653217638205    0.16126923938305
H          -1.08571409603050    1.88394902851808   -0.68530160456889
O          -0.28388460049839   -2.84426287688056   -0.83278323232513
H           0.21837665322246   -3.54170393522978   -1.25517747600558
H           0.32883748078740   -2.08599318334671   -0.74698014875038
O          -1.46449489179519   -1.68156724432126    1.55302633064428
H          -1.17492433286096   -2.51538403562162    1.16649277756866
H          -1.78937601494429   -1.17302425978630    0.78193620068999
N           0.62142142459498    1.90602417291214    1.53143166066779
H           0.87569024294751    2.60701906570459    2.21864438002346
H          -0.34367219567435    2.07077468203180    1.14783224805052
H           1.27913307548323    1.91848044670031    0.70489474288085
H           0.69455757081986    0.90105658889759    1.92769025595786
