    26
        -50.46319725  Gyration_radius:  2.43872676061 Dipole_moment: 3.235
 S           0.22024798201461   -0.18141601083479   -2.01402817159086
O           0.82802863601667   -1.42421459570477   -1.57199256705084
O          -1.21813496434188   -0.16440880603267   -1.80811483704106
O           0.87244150749466    0.98163975969671   -1.43857615547602
O           0.44046155624880   -0.11452701119161   -3.57730622815196
H           1.35808224554912   -0.35747926386120   -3.64108760765065
O           2.75478915561253   -0.05564855827672    0.24961680738884
H           2.67665247163023    0.50131002270567    1.02858078305277
H           2.19237962489072    0.35101965896685   -0.42820431780910
O           0.94086279618911    0.51762968815264    2.47945490389916
H           0.58225966363178    1.21440887561081    1.85836219025437
H           0.51589534941609    0.66761037777887    3.32426442886178
O          -2.53970841921412    1.29587571274591   -0.03661094035140
H          -2.07595678144276    0.83190117878453   -0.76947921392021
H          -3.14952999304233    1.90673696814557   -0.45251569633062
O          -2.03078374023426   -1.52512978725955    0.36629115328031
H          -2.49459976457317   -0.75444963858435    0.71434556504506
H          -1.79512950250048   -1.26569598082952   -0.54684385904590
O          -0.07617647664552    2.18353879056962    0.75972695616759
H           0.34082446851760    1.89615929939896   -0.07575611847053
H          -1.02237967246874    1.98846752153607    0.63947406792593
N           0.54280905579288   -1.71097512670634    1.01096086633193
H           0.87558581945668   -1.58094215914467    0.01142900787761
H          -0.50657273696734   -1.75944096043671    0.93879388653112
H           0.94242211477651   -2.56188791346912    1.39199574750329
H           0.82522961421547   -0.88008205177004    1.58721939876363
