    26
        -50.47229294  Gyration_radius:  2.48030385282 Dipole_moment: 1.994
 S          -2.03489830903518    0.62562426636506   -0.81446115905444
O          -1.49577941846935    0.99970906426695   -2.10747897295135
O          -1.55509482650426   -0.68464792580281   -0.38535402906061
O          -1.84738111038880    1.62829265337627    0.21400394927382
O          -3.60001458733312    0.48833944912448   -1.02234970469637
H          -3.64059407807704    0.10242165066592   -1.89096674692657
O           1.93484164225292   -1.82762886750536    0.61155395483658
H           2.55762676867579   -2.55208894971970    0.55018023640058
H           1.47587857597814   -1.77221006871707   -0.27582326858464
O           2.11046386747433    0.91784287968756    0.70230463041014
H           2.23794562274340   -0.04793413098892    0.72145137093174
H           1.80082197568427    1.11994831763202   -0.20088291278728
O           0.65607789409790   -1.48089929040010   -1.63205434766331
H          -0.23151466150903   -1.27971411216008   -1.26848775963617
H           0.97971385788773   -0.63244624449091   -1.96472790112339
O          -0.49467015421355   -1.61459330569047    1.90708198927678
H          -1.02862620292446   -1.46273650353286    1.10342476724861
H           0.38658215127423   -1.86594718365323    1.57638356774043
O           1.05935955645094    1.28668887707531   -1.80060652088267
H           0.07574774954776    1.23087269450164   -1.91185783799367
H           1.34400720748832    2.02058148476066   -2.34749444741049
N          -0.13714450849243    0.97874056044811    2.07834127549877
H          -0.86369704628498    1.30710536766813    1.38147398628591
H          -0.30462531314597   -0.06453360807976    2.21328588997132
H           0.81517670594680    1.08094159578719    1.61724232930329
H          -0.20020335912447    1.49827132938180    2.94581766159327
