    26
        -50.46844410  Gyration_radius:  2.50923037219 Dipole_moment: 0.758
 S          -1.68792135492720    0.01755522434291   -0.88167389319375
O          -1.62664893556233   -1.21226096693357   -0.11056742682611
O          -1.58011378156317    1.18655725415932   -0.02024951050804
O          -0.73349174047299    0.04802268687068   -1.97207505961466
O          -3.12355670689520    0.05471337651348   -1.54332123955997
H          -3.67797749465791   -0.29079469186954   -0.85081673159995
O           1.65960945624031   -1.33272935366881   -2.00659296440076
H           2.17852213471241   -0.57445146936101   -2.29330847462046
H           0.73644988027525   -1.07252589399817   -2.16654730122310
O           1.01235258083666    1.65706625865417    0.37873448013021
H           0.04348278500733    1.69480401212581    0.25154167471956
H           1.38393790523483    1.80314312816483   -0.50919435320888
O           1.38383593723292    1.62345687366493   -2.32447915358984
H           1.20070036608213    2.36329615362710   -2.90475829541751
H           0.55720119288552    1.09679035194930   -2.28142098729321
O           0.54025602079741   -1.60507478771276    3.13817374793270
H          -0.03367292807147   -2.33731668266416    3.36703310517048
H          -0.04352782411652   -0.82119559020232    3.05793803755796
O          -0.96740634274556    0.58691552283829    2.55918970764603
H          -0.41313325225983    1.35626339706084    2.71236648977737
H          -1.32877059898809    0.70686168388784    1.66129414929228
N           0.92990639874636   -1.00699653187378    0.55586176123725
H           1.47674793991769   -1.38389353193254   -0.24089719242019
H          -0.08594394009413   -1.17130928441406    0.33978336622327
H           1.11889650469746   -1.42538312147393    1.48600069123244
H           1.08026579770233    0.03848598223034    0.59798536254877
