    26
        -50.47411093  Gyration_radius:  2.41830983834 Dipole_moment: 2.957
 S          -0.08777374034621    0.97267747308666   -1.34644259266778
O          -0.23676585408315   -0.49468171620600   -1.27639847504292
O          -0.63040927685591    1.57313903477931   -0.12045283952536
O           1.27535528126480    1.35815464589793   -1.59056803574642
O          -0.96657837841585    1.45031822380763   -2.53014903779479
H          -1.85418213224134    1.07384514547736   -2.33113360252177
O           0.01134683659473   -1.35370332314052    2.21710427679838
H          -0.86073529858790   -1.26481880698724    1.78872139598217
H           0.58573208950442   -1.77855256739782    1.55683475542675
O          -3.17655604152183    0.14411169991611   -1.87127079193230
H          -3.03674333891254   -0.17322590323956   -0.95845193735264
H          -3.16536856411680   -0.63438979748763   -2.43271560238598
O          -2.06644794388228   -0.59639560202259    0.54935947079219
H          -1.37601212099722   -0.71623926204339   -0.14730057470742
H          -1.98779485434357    0.34362324150022    0.76055456076036
O           1.55445717777732   -1.90116455027263   -0.01679355325440
H           0.90618153417751   -1.37947201427833   -0.55460856687552
H           1.74457652795135   -2.69185670465993   -0.52343838105848
O           2.98332492014321    0.45422268394014    0.22338947782702
H           2.78627221644476   -0.49361995768321    0.14283268277690
H           2.53624740081877    0.86831003325144   -0.54710455597068
N           1.01712713841120    1.06676590870159    1.83467640133940
H           0.34098149416721    1.41242836570578    1.09228771873460
H           0.64239512649156    0.13560326471889    2.17652888897437
H           1.93668453026876    0.88699094054757    1.31817457471110
H           1.12468528028593    1.73792953408937    2.58636432271115
