    26
        -50.47289098  Gyration_radius:  2.42611009323 Dipole_moment: 2.398
 S          -0.41755154397421   -0.19368606812220   -1.67981013325834
O           1.01198709998676   -0.31654547616291   -1.41651019106759
O          -1.07047327804067   -1.46661198974012   -1.86235300076516
O          -1.07083416906146    0.64682210000269   -0.69125706354064
O          -0.54314635611077    0.56528945687943   -3.07082133305615
H          -0.93690719338083   -0.10906022607101   -3.61364576194102
O           0.40879956350661    2.40601149848303    0.73907499823729
H           1.09190977263362    2.61502339521677    0.08326144285445
H          -0.24661448913961    1.89880981068374    0.22914882719730
O           0.54680128683059    0.47907798284807    2.55356526251642
H           0.61231891149611    1.29671984732136    2.00236135504891
H          -0.39416430968659    0.24050979961560    2.52293626244755
O           1.61360463702170    2.27597381105362   -1.74056270834228
H           1.01438160582000    2.54445144107852   -2.43934552052918
H           1.51668250453883    1.31074479644764   -1.66965116383384
O          -0.91004163539778   -2.64406534967231    0.54087126598900
H          -1.48237662057911   -2.05059167590759    1.05310030707737
H          -1.03000423598494   -2.37575874879905   -0.39296970770420
O          -1.95174525841406   -0.30986017102299    1.59826378404132
H          -1.67377539501772    0.06691692004620    0.73182245259490
H          -2.80994822005896    0.07034996778604    1.79135301281936
N           1.37555991417151   -1.40444358173740    0.95758705358223
H           1.41493857971798   -0.95322597042528    0.01295511026648
H           1.14408634207225   -0.63902553627447    1.68259947955976
H           0.54685710912496   -2.06636058583815    0.90269561340716
H           2.23965539791957   -1.88746546769080    1.17533035639512
