    26
        -50.46896882  Gyration_radius:  2.54014847425 Dipole_moment: 0.609
 S           0.26593206890329   -1.50612607494025    1.30765136400677
O           0.57462779724906   -0.13489577775521    1.70812866597148
O          -1.15224407628066   -1.77343218658399    1.35229452591460
O           0.87306382128859   -1.83369776559203    0.02707722652995
O           0.95168556491099   -2.45607811706536    2.36893301490943
H           0.38729576830991   -2.34498966846465    3.12693993737641
O          -2.67109390565310   -0.62711414203848   -0.55156589921055
H          -2.25604956842778   -1.13559554166936   -1.27299432519491
H          -2.36992369840894   -1.09028936648061    0.25357533149520
O           1.36423877133760    0.14591308357011   -1.64890687125213
H           1.23088932827689   -0.24059150280126   -2.51699313505125
H           1.33841895896448   -0.60889575010954   -1.01892072346701
O           2.14385805155008    1.84122377984181    0.57671631940456
H           1.75026137438346    1.15655897230587    1.14278966305922
H           2.25643181925499    1.42633107592907   -0.28605730444674
O           0.12491455129991    3.61273788399287    0.30794352067253
H           0.07596102280398    4.20399440094797    1.05931204240117
H           0.96443157956172    3.10814228635273    0.40752248839903
O          -0.88679395818207   -2.13068536945906   -1.96472374568002
H          -0.24668258310396   -2.09944771803996   -1.22375374262774
H          -1.12540288151823   -3.05312881877591   -2.06674641840084
N          -0.74520000461440    1.12795789580191   -0.22728157846638
H          -0.05774506433454    0.91138934043832   -0.97708535425518
H          -0.34012493180210    0.71047499187526    0.64314938952278
H          -0.78925268565109    2.15535847708749   -0.10514655831586
H          -1.66149709012228    0.63488562162269   -0.42185781327659
