    26
        -50.46927472  Gyration_radius:  2.61424773751 Dipole_moment: 4.428
 S           0.78856446389439    0.86602293045916   -1.18580281849000
O           0.42988307949606   -0.12202692173231   -2.19158683305605
O          -0.33088064882006    1.73001133787974   -0.84641747551328
O           1.35037132426714    0.23105762755346    0.00790429945626
O           1.93252703887697    1.76363575992063   -1.76588216776024
H           1.49941805578698    2.15552503155343   -2.54911642012318
O          -0.81932501389393   -2.42861952843784   -1.78126868677215
H          -0.40993477770284   -1.56441010884067   -2.01159084046861
H          -0.38779225369716   -3.07844726193273   -2.33767431222601
O           0.17302294462752   -1.67238054885411    3.32628332883143
H          -0.38927715046241   -1.63346756791352    4.10094258356362
H           0.45318357640505   -0.75437506186279    3.13928287624660
O          -0.00668416759192    2.22321884339454   -3.49948965787935
H          -0.03872864261614    1.25758127478321   -3.54264960788881
H          -0.52688301889132    2.44522365197111   -2.71518134441238
O           0.74072973011333    0.88833811826571    2.49724633459900
H           1.43220370264632    1.43506750057976    2.87327263535529
H           1.01217224167921    0.71904558759822    1.56482650656129
O          -1.77946113244922    0.74909017430870    1.13585775594468
H          -1.22931021861722    1.04239433078989    1.87323660145879
H          -1.39107977578431    1.19783000919969    0.35221650902100
N          -0.51283540736389   -1.53098868214842    0.71579920197978
H          -1.22595229550698   -0.76170101553991    0.86821383796576
H          -0.78331676145293   -2.15040982993654   -0.06948241521952
H           0.34792697116032   -1.01249048725006    0.42173789048426
H          -0.32854185416135   -1.99472516358942    1.61932220828309
