    26
        -50.46547037  Gyration_radius:  2.52323217898 Dipole_moment: 4.994
 S          -0.16329708872180   -0.34296298761858   -0.79684696440245
O           0.97048817136497   -1.21169701920716   -1.04907545828717
O          -1.44515016316984   -0.88250740339153   -1.17260650800534
O          -0.15395856858619   -0.12108667924561    0.75504814456324
O           0.08123224028340    0.99075380825317   -1.38733263332878
O          -3.49724695033388   -1.28876080650268    0.46997928461148
H          -2.80090170770356   -1.21646402210899   -0.21601820832280
H          -3.44558443680969   -2.18220262028206    0.81120967715577
O           2.67924148090576   -1.96902708086166    0.80476899565197
H           2.39718183988778   -2.79143612784347    1.20649008734142
H           2.01997085739435   -1.77222717177665    0.10003787053139
O          -2.46098477008040    1.79359729535393   -1.24260727639254
H          -2.90772137290953    1.03054219421813   -1.62036674568408
H          -1.51247882323063    1.63308097356057   -1.40242576872945
O           2.35022175144538    0.52036279755886    1.69389609440633
H           2.58947318628086    0.90835129496658    0.21235965115946
H           1.38118357250985    0.45731162975180    1.68320087130658
H           2.64721273469820   -0.41231800521426    1.62522137950592
O          -2.33696799604741    0.99773390526324    1.29287778183801
H          -2.48458388013223    1.49886170320058    0.45628970444460
H          -2.94158776061023    0.23181356430035    1.22880851890828
H          -1.03549725423792    0.35663774907256    1.02321947465908
N           2.56830539258115    0.95982324410108   -0.86668691888875
H           2.79321572931942    0.02945122394796   -1.22321719468356
H           3.18363510265951    1.67439390968553   -1.24239312421113
H           1.52459871325462    1.10797465082437   -1.14383071515678
