    26
        -50.46492548  Gyration_radius:  2.56790837878 Dipole_moment: 4.067
 S           0.89132960023039   -1.04534954283300   -0.82999996786337
O           0.86958963051985   -0.57253676517281   -2.20106426513880
O           1.16276709344953    0.06852753921181    0.09510488941172
O          -0.31402231093543   -1.75000964562931   -0.43211765735919
O           2.07786536536207   -2.05150689315201   -0.66191499101859
H           2.83961994051723   -1.54225822916379   -1.00089548775127
O           1.48198487075703    1.23448616553334    2.60065472273517
H           2.11051307511376    0.80316531484317    3.18071372437001
H           1.58773248524169    0.82345280918394    1.72868818333050
O           3.40546940768861   -0.00581139215824   -1.69881874077786
H           2.56490956232003   -0.05045767505467   -2.19073026857484
H           3.26075405344093    0.65108117318869   -1.01235854572416
O          -1.77519578978117   -0.14380560537067   -2.02802770007103
H          -1.63046960522779   -0.90160423732931   -1.44168572036362
H          -0.90627061547630   -0.05577950368844   -2.45140646065112
O          -1.78859784004816   -1.65456448577733    1.75591768416678
H          -2.63105606626208   -2.04510747881415    1.51695260344509
H          -1.17987540166494   -1.84440239146278    1.00761011565192
O          -2.50540834971339    1.93444284636617   -0.54855460711613
H          -2.34231391249793    1.16889770486025   -1.15397028002273
H          -2.28938919714986    2.72099244484730   -1.05134118475368
N          -0.99939339977206    0.87325622294704    1.38083963644807
H          -1.45894699149115   -0.00996928666225    1.70077818952764
H          -1.64239624205136    1.42663078357200    0.76703545360535
H          -0.62047096735571    1.40088330505076    2.16753312185414
H          -0.16872838523188    0.56734683267413    0.80105756263491
