    26
        -50.47530411  Gyration_radius:  2.42322076687 Dipole_moment: 2.966
 S           0.10318903643302   -0.27446099784436   -1.70478899071506
O           0.10793056768188   -1.47593173321263   -0.84729044547859
O          -0.62228972161718    0.80395122696730   -1.03724327524292
O           1.42499182426186    0.11526578784314   -2.10347627402354
O          -0.71546094806630   -0.65375054710744   -2.98256501674483
H          -1.54634771965031   -0.99815930446603   -2.61652608129551
O           2.80395781850903    1.02392851865862   -0.00649194314965
H           2.23440258958514    1.77014693021323    0.24358607848987
H           2.47811458370935    0.73893840955977   -0.88581772922624
O          -0.25373947812756    0.63733169175386    2.55057850659882
H          -1.09824054378642    0.36584084808452    2.13694056927854
H          -0.01031143206627    1.46267329912496    2.09713286006173
O           0.53399384070062    2.46839072711562    0.61980558759097
H           0.21717192888688    3.35409120789844    0.43674879710726
H           0.09274389961843    1.88048737039531   -0.04028310126522
O          -2.39593660558611   -1.95633250016135   -1.29791030879323
H          -2.56420321200331   -2.86929198941645   -1.53920596653464
H          -1.46851439544101   -1.91563947017546   -0.97158971598472
O          -2.28024169278066    0.00722231783734    0.89114740950711
H          -1.75319844085609    0.36566248932766    0.14960033813008
H          -2.74518150964671   -0.74665355804955    0.51888406166291
N           1.50562983396856   -0.84518260750977    1.29870331300334
H           0.96383902968435   -1.22987172914474    0.48416906565413
H           0.81502142229790   -0.31535012198112    1.92525755588252
H           1.99074694404716   -1.57948504263520    1.80147971061867
H           2.18193238010711   -0.13382123306466    0.87915501479006
