    26
        -50.47172772  Gyration_radius:  2.52498940561 Dipole_moment: 0.993
 S          -0.21285067874299   -1.43319757539730   -1.37941806347482
O          -1.51872901520292   -0.79372440456001   -1.31287537578025
O           0.60995573153350   -0.91258652734032   -2.45163038472192
O           0.44882875323846   -1.41962789768818   -0.08431083349873
O          -0.46115449335687   -2.95597878091139   -1.73420328153545
H          -0.40414755743508   -2.93872313707274   -2.68331071689422
O           2.50137022630197    0.24306577679626    0.64029263967806
H           1.94341093438790   -0.52297323300783    0.42664920972229
H           2.36117017134733    0.85120590248913   -0.10147358245918
O           1.44308877511862    1.06932895656229    2.93839393966144
H           1.94935956872781    0.85401919025832    2.11623101221861
H           1.86920207740497    0.58365216034489    3.64541384775130
O           1.54234250482305    1.40153266130336   -1.69965489118903
H           1.98971471827969    1.81768291220382   -2.43838507866608
H           1.24304003995746    0.51527068570975   -2.02200225917073
O          -2.98351841007691   -0.94457879761426    0.94006149973782
H          -3.91314802908408   -0.92241908598997    0.71075512251520
H          -2.49633474691264   -0.97114972469212    0.09128948687111
O          -0.99253459572470    1.78666011381947   -0.72694658316356
H          -0.09012525363901    1.89023604392781   -1.07457697084341
H          -1.32771832383856    0.96001458444942   -1.12068512287753
N          -0.70773219171011    0.37896794304114    1.50018649296018
H          -0.84745503232403    1.13236486976627    0.77355726346242
H          -1.62672078434916    0.04600285212431    1.81066090508792
H          -0.25536512903123   -0.41234091730703    0.98133561869957
H          -0.06394925968745    0.69729542879037    2.25464611590413
