    26
        -50.46860822  Gyration_radius:  2.53238482783 Dipole_moment: 1.505
 S          -1.13616635079694   -0.20496798148698    1.67174692049280
O          -2.21040854356127   -0.24172393141926    0.68739345082921
O          -0.00692385924479   -1.02912769569697    1.24296083320844
O          -0.73805048231022    1.13254306672596    2.02869902485277
O          -1.70721691171378   -0.88282319574644    2.98075674605812
H          -2.01970358639901   -1.73034324012898    2.67827667269176
O          -1.30327954765653    1.80108548626212   -0.73570498666462
H          -1.76479769785985    1.10023884586415   -0.22744199882056
H          -1.31345474045710    2.57001573381050   -0.16083315581051
O           2.34628937820207   -0.84840614712974   -2.16908621732829
H           1.82835218259349   -1.59448024995413   -1.76755222411854
H           2.19245442192219   -0.89578848694186   -3.11335108502442
O           1.61577401553934    2.36287189617113    1.70921767682549
H           0.72734310236820    2.00998797323642    1.92464886266668
H           2.12492738318403    2.31313637852104    2.51906807431379
O           0.64073792345184   -2.50864948291794   -1.02835095904466
H           0.54136103866685   -2.23145866871326   -0.10621609830639
H          -0.18437768895038   -2.21210647584590   -1.45393147789141
O          -1.62029819872453   -1.17665847833395   -1.77049704379044
H          -1.72579242778691   -0.36438364774528   -2.27009219907296
H          -1.92584758522444   -0.96678202943856   -0.86831613137480
N           1.14954183919909    0.72841704747381   -0.37555426646161
H           0.29162703753844    1.20502770580554   -0.73263078735481
H           1.71927379050857    0.29509836664058   -1.13946750582670
H           1.67072176799579    1.40050330427345    0.21262417421691
H           0.80791374952831   -0.03122608329836    0.26363369073415
