    26
        -50.45198924  Gyration_radius:  2.60470787063 Dipole_moment: 2.747
 S          -0.63822793243289    0.12115749840215   -0.29260079636719
O          -0.59964925018438   -1.14540099372581   -0.98820892300648
O           0.31393453068802    0.19749923615052    0.79618005182118
O          -0.36118804159047    1.25110944900792   -1.29109252474253
O          -2.02328661413389    0.42786367800141    0.20772492235653
O          -2.02803284817345   -3.11380916177943    0.08794943074269
H          -2.63908749944372   -3.41196266775355   -0.58828607319405
H          -1.41344315838047   -2.48917030986211   -0.35061505001499
O           2.70992230520233    0.36179106740728   -0.52090701666581
H           2.75385981222888    1.34076260655954   -0.56889676523382
H           1.99081888544431    0.18373171570163    0.10627021950794
O          -0.43022062165144   -0.91977427480635    3.09475169265464
H          -0.02455086012770   -0.54740533356761    2.28486786560071
H          -0.31330098107860   -0.26262015852123    3.78315645258440
O           1.27822621713132   -0.04826651231746   -2.64940089594374
H           0.83759083213408   -0.88808584512028   -2.46821374298102
H           0.29642259866861    0.81637206601674   -1.97485388717220
H           2.00336506052206    0.03220414825555   -1.96297904308944
O          -2.70715055780051   -1.27516220037003    1.83351222690601
H          -2.39886576446828   -0.32003855688003    0.96398146515979
H          -2.56701656469819   -2.09674663540453    1.29473753324442
H          -1.94449410396069   -1.23724505600334    2.46653652278523
N           2.12556265479232    3.03303585305924   -0.77016429625737
H           2.41237026018689    3.49412720316891   -1.62445183687161
H           2.22516455030382    3.69368992221966   -0.00995458358928
H           1.14127708081918    2.80234326215619   -0.85904290822945
