    26
        -50.46400371  Gyration_radius:  2.43613839912 Dipole_moment: 6.312
 S           0.07695748643156    2.18867883878836   -0.52607996462270
O          -0.21327258841545    2.84630874862776    0.72756275597851
O           1.42539074176908    1.68050467117143   -0.61518527978104
O          -0.92167952150021    1.17628957940681   -0.87799081137836
O          -0.07769122300261    3.29336566363402   -1.66100110182657
H           0.50377575613294    3.97291598183591   -1.33734695550216
O           1.43402306292950   -1.49306225980016    1.35520822362334
H           1.99908627850588   -1.74467635100916    2.08658541425732
O          -2.31591600291479   -0.06712134984765    0.90139683940645
H          -1.81731343369837    0.48282180814369    0.23520176535229
H          -3.22398598719128    0.23525788702403    0.86083701216419
O          -0.18313241793988   -1.02179020151922   -2.13647006028286
H          -0.48884095646086   -0.12692693929367   -1.86595690879279
H          -0.58782072550823   -1.76157784592189   -0.96617864190763
O           2.26119696085551   -0.74778756958378   -1.25045210033572
H           0.80339699058851   -0.98612747787189   -2.00461486723272
H           2.10838283718851    0.20822603571706   -1.09868139255049
H           2.20101933935925   -1.13520935181325   -0.36603412067024
O           0.13558813981451    0.64279788337432    2.10727330176777
H          -0.79437709403678    0.38406581717447    2.06999623684305
H           1.04464071917784   -0.60987964895588    1.60389020004559
H           0.16273095530570    1.51522314169782    1.66121844513982
N          -0.83846533598565   -2.17407182109785    0.04329193432345
H           0.03213940308637   -2.11051087707667    0.60634105961505
H          -1.18658546894889   -3.12423526130940   -0.00249217273870
H          -1.53924792554164   -1.52347912149409    0.44968117910527
