    26
        -50.47150110  Gyration_radius:  2.42635731718 Dipole_moment: 3.424
 S          -1.71123627284904    0.70740994528719   -0.33761072965797
O          -1.54025385549221   -0.20195343045963    0.78585737699691
O          -1.67389122191235    2.09643125102388    0.09280343342433
O          -0.79262471088851    0.43011852990318   -1.42363936026165
O          -3.15731878042629    0.44791132726453   -0.91636366130839
H          -3.71565602028809    0.68556516013462   -0.18376719715064
O           2.01822797753668   -1.31888120622352    0.66808919376096
H           2.68974240435854   -1.98730916105962    0.80663586059449
O          -0.77579402427445   -1.99193704440610   -2.53352319121992
H          -0.89107012612571   -1.07438483009237   -2.21509148103570
H          -0.18107947897204   -1.94230751124963   -3.28365903578991
O           1.81300390653361    0.86560013534800   -0.96769737085350
H           0.91982804276120    0.69584942733578   -1.32598922321673
H           2.04252585256437    0.05984727719927   -0.46710892862293
O          -0.23904983487284   -2.45616415863191    0.09679556868134
H          -0.82508809973396   -1.73796754722999    0.40175890788476
H          -0.40715113200475   -2.52350619514071   -0.86078093189875
H           1.17917448812982   -1.81278087923999    0.42108881205796
O           0.55055674842118    0.17382061010761    2.45075234569691
H          -0.31174388663790   -0.03956152597497    2.04390523141519
H           1.18372815148148   -0.41739607782098    2.00256615581847
H           0.76931595427464    1.56523939122221    1.72984596967105
N           0.78141957877334    2.30632728473376    0.96054076278526
H          -0.21753815947175    2.38571723380106    0.62249485641532
H           1.34390512868541    1.88695058282841    0.15698391033101
H           1.14806738042753    3.19736138133100    1.27511276548629
