    26
        -50.46400375  Gyration_radius:  2.43621123996 Dipole_moment: 6.316
 S           1.01780524395399   -1.89983931329903   -0.65421142635983
O           1.43293729025709   -0.85823105679227   -1.56373803915548
O           1.96591385412715   -2.15589384404401    0.40591015337465
O          -0.34414460427940   -1.69116481992936   -0.15664654070284
O           0.91665353087341   -3.24242334788726   -1.50245966713966
H           1.83117743936759   -3.39713357444738   -1.71298610132598
O           0.72683590917016    2.35690552003884    0.20428474734350
H           1.32309411888172    3.08010110025796    0.40159818179272
O          -1.94079174194667    0.02391368032008   -1.36913833158975
H          -1.43385527568263   -0.75711317709399   -1.05225262876387
H          -1.92348390850179    0.80957080027695   -0.15923416209333
O          -0.82932557205830   -0.78401455689655    2.20932675062024
H          -0.61123367671173   -1.20315409459137    1.33091165456785
H          -1.19302740641318   -1.48653957018642    2.74948549126113
O           0.11921539528901    1.29813316369400   -2.35341889134582
H           0.37230278274981    1.87418038257313   -1.61859639402193
H           0.67943481974128    0.50328281979749   -2.23210089132388
H          -1.28431104263589    0.52346528014023   -1.92703538913820
O           1.67547897777974    0.24788128180337    1.41494561079187
H           0.97579424486033   -0.01287083635405    2.02780818822074
H           1.94218913372116   -0.58947709362312    0.98074119051219
H           1.16681077490269    1.53668518961583    0.56075945449943
N          -1.72063388187535    1.35366270518309    0.79707953623453
H          -2.49995556132918    1.93304077567412    1.08532276870472
H          -0.86300821415359    1.91656815094721    0.63360786313630
H          -1.50187263008833    0.62046442482264    1.50003687190102
