    26
        -50.46400421  Gyration_radius:  2.43636428334 Dipole_moment: 6.312
 S           0.29286599603052    2.12547522879209   -0.68677388862761
O           0.60190985791564    2.08605482588409    0.72308912798799
O           1.45763374903129    2.04454885216029   -1.53821272747485
O          -0.74439289761433    1.15865234652699   -1.05460654594516
O          -0.37896139277592    3.53924793294800   -0.97362355529480
H           0.35271359950345    4.12639160281977   -0.81725123267126
O           1.25850907682797   -1.51118172161903    1.50225160973386
H           2.03114218689046   -1.91127151331908    1.90274915483366
O          -2.22692717611896    0.04532678119289    0.82286546338124
H          -1.63628683124472   -1.22028093552587    0.46054561571891
H          -1.83096940717500    0.60665438001669    0.11898501043056
O          -0.20251293298078   -1.07012005257668   -2.23554526576029
H          -0.51042892203967   -1.03166406731398   -3.14180487021660
H          -0.38744843074917   -0.16967353425322   -1.84839162789848
O           2.06081002627924   -0.36707412512042   -0.70202542012857
H           1.59805958119294   -0.97147192829885    0.73605736451306
H           1.56337948296356   -0.81395707688373   -1.39924942256040
H           1.97503315701007    0.58579091745138   -0.91569627043138
O          -0.38033697226404    0.51629827335296    2.61305991431256
H           0.22337821194342   -0.22835885816494    2.48277192955225
H          -0.00420428779784    1.22451750391293    2.04989577142743
H          -1.69826855363145    0.27360966958784    1.63544848496686
N          -1.01305263299602   -2.09311756009819    0.14239987713064
H          -1.50344548421931   -2.97426802781660    0.23826587701348
H          -0.15531741712695   -2.06524106542524    0.72784454551629
H          -0.74288158685490   -1.90488785823064   -0.84304891950877
