    26
        -50.46400401  Gyration_radius:  2.43624926236 Dipole_moment: 6.313
 S           2.01558437459870    0.09294444576755   -1.00152494271853
O           2.64675656193026    1.23573476278958   -0.38194299561760
O           2.00703974377789   -1.08654459648725   -0.16893136121376
O           0.68820320072861    0.40235229217674   -1.53840292766452
O           2.88077312677936   -0.25660347777369   -2.29055954772208
H           3.74799514385349   -0.34883896716107   -1.91108307889600
O          -0.75762193884039   -0.55618686422641    2.28891173177089
H          -0.72528601132461   -0.57698080211222    3.24599981380009
O          -1.21869026901346   -1.41938490915719   -1.46232226765806
H          -1.93880356104124   -0.54741099065068   -0.56653989055496
H          -0.46684680349754   -0.82511121063789   -1.68356381897070
O          -0.79070546665796    2.28593542810090   -0.57886444931108
H          -0.16650637706907    1.61681680523893   -0.97580811200119
H          -0.83267658196295    3.00747174991584   -1.20754879645297
O          -0.02186642033958   -2.64059861149570    0.51552051597958
H          -0.31882860154874   -2.12773136102415    1.28017492604735
H          -0.82677692526606   -2.06928506614676   -0.81740300352877
H           0.82951731545197   -2.22261822307249    0.26913649360625
O           0.84753721989405    1.35422755511840    1.52293799517890
H          -0.04804794606474    0.08435220354754    2.00659699814256
H           1.62723968330892    1.24641214114875    0.93870786570301
H           0.27668524950564    1.97247650375654    1.04852207626321
N          -2.31497953537007    0.18001778511214    0.19574665226066
H          -1.91667817032894    1.10188114786845   -0.07088410886714
H          -1.89636802728054   -0.10759417646523    1.10189873922407
H          -3.32664897422355    0.20426644586945    0.24122547320102
