    26
        -50.46183262  Gyration_radius:  2.40570652136 Dipole_moment: 6.583
 S           0.65670153974778    1.72302499298960    0.80032146999909
O           0.14901123615210    1.09728075840128    2.02832772066839
O           2.04010364039370    1.42103955285131    0.55465193258576
O          -0.23662209916027    1.46112547321803   -0.31132532352663
O           0.57924256682750    3.28939033512099    1.05356766415475
H           1.42914504807133    3.49658813244606    1.43049136303863
O          -0.86961924817134   -1.87662735967563   -1.37072604898586
H          -0.56995686361792   -2.71507701927664   -1.72421941870493
O           0.69247701435280    0.19945058551477   -2.53626373910211
H           0.05779967415612   -0.52612509769497   -2.46058574165267
H           0.43577114081186    0.82380599711264   -1.83642266960762
O           2.74300943393751   -0.73194921879266   -1.01805869519425
H           2.87774613825236    0.07961589812610   -0.50646659622911
H           2.17147532324246   -0.45016832383365   -1.76210533293462
O           0.77833725017056   -1.24834704278310    0.63950132002205
H           1.59542718324313   -1.25144025365452    0.06916385899098
H           0.79919352805779   -0.37583640374864    1.05176681635338
H          -0.25684116828625   -1.65363136283662   -0.62950620377814
O          -2.51613071317554    0.13369334240449   -0.55621427237145
H          -2.20573860202103   -0.36519050210993    0.83455543433669
H          -1.79835625758498    0.80270608045915   -0.58425681464751
H          -2.19084432716211   -0.59214606773491   -1.11312181143712
N          -1.74024833284614   -0.64378889800294    1.78162545502449
H          -1.03080377593758    0.14016645416662    1.98012095075499
H          -1.18457638152129   -1.48887042426654    1.64553739114708
H          -2.40570293793201   -0.74868961838860    2.53964129111139
