    26
        -50.46183266  Gyration_radius:  2.40568887259 Dipole_moment: 6.583
 S           1.12913581057498   -1.42196789496152   -0.86217359410548
O           2.07020280462408   -1.46633875295960    0.22308401189913
O          -0.07060695999427   -2.22952300679845   -0.60583268122200
O           0.76192234880985   -0.09052486944473   -1.30351433236392
O           1.84716815186903   -2.10321507948852   -2.10475412006475
H           2.43700537600729   -2.73437817894223   -1.70340624979708
O          -1.14796691332169    2.04770316550885    0.80442774258337
H          -1.25719967769666    2.54541576423786    1.61567098573247
O           1.60853618959289    2.08731858427396    0.09127986487639
H           0.70951054885438    2.40092939753879    0.25979507456088
H           1.49525608781619    1.32483883323692   -0.50141347636455
O           1.99964664368026    0.43955211186060    2.21462595870010
H           2.02821275480762    1.18655678964195    1.58152231485168
H           2.35130579305165   -0.30851070661197    1.70942045465953
O          -1.55354743463069    1.12546213748459   -1.72555494906643
H          -0.64359988664960    0.76381983105120   -1.79485624192524
H          -2.14631107859382   -0.08225372756332   -1.04039650590849
H          -1.50220696804375    1.76954311234904   -1.00076539744462
O          -0.37443451490759   -0.41525158202190    1.50274770148304
H          -0.03310987464801   -1.06000125358869    0.87072103798957
H           0.44497343266268   -0.10377597706138    1.97657984827821
H          -0.86390650867033    1.14086675639977    1.07198668047009
N          -2.32939691220622   -0.98921681095992   -0.46145549402326
H          -2.33900566235488   -0.75574048673582    0.53195974271291
H          -1.45002440541062   -1.59120072494709   -0.60859376681930
H          -3.17155913520286   -1.48010741150272   -0.74110458970143
