    26
        -50.47150113  Gyration_radius:  2.42627849412 Dipole_moment: 3.427
 S           0.92527759486565    1.35845911904970   -0.91569456661082
O           0.05753243254411    1.78695760998937   -2.00167260496887
O           0.34300864501374    1.66441196287680    0.38265540671094
O           1.32904109407566   -0.02846771708559   -1.03248109093140
O           2.25219790341664    2.20719543585553   -1.03001572244553
H           1.92663412781106    3.10021741930079   -0.99306452458975
O          -1.10930919996796   -1.53799555986730    1.63266610842661
H          -1.33057857644186   -2.13007902936620    2.35196273233667
O           3.06779256928016   -1.03041012426193    0.72005170674375
H           3.27812318754415   -1.91518508011271    0.41715831222483
H           2.54525771862640   -0.61425069949874    0.00570632343825
O          -0.61084600656548   -1.87880119547203   -1.03708352194831
H           0.21229746826244   -1.35578847174178   -1.09879210929286
H          -0.80353496445385   -1.93617698885750   -0.08211797902104
O           0.99333373643747   -0.15725519973232    2.25536966488721
H           1.82311602012832   -0.53735553665793    1.91369276420556
H           0.81702265227231    0.61093721075962    1.67994057904235
H          -0.27483896483056   -1.05523958598353    1.91458816254701
O          -2.18939966347895    0.87549804818670    0.88085897299709
H          -1.98112205362898    0.01348841671008    1.28708912617344
H          -1.33074112762303    1.34005316810206    0.84168187405873
H          -2.30312047443153    0.53988135204591   -0.66077237401396
N          -2.02002911999786    0.24269305170175   -1.64719646073851
H          -2.79429118968674    0.25311818351945   -2.30121291518692
H          -1.57458732457946   -0.72140188773039   -1.54742848120132
H          -1.24823649456574    0.90549608826604   -1.93588938283647
