    26
        -50.46183268  Gyration_radius:  2.40573066788 Dipole_moment: 6.582
 S          -0.14582535578836    2.00236605853804    0.09735219333371
O          -0.92341216208746    2.09845460305021   -1.10742446190932
O          -0.96110760183003    1.67312100376608    1.27381095008124
O           1.00783431441706    1.12778816014838    0.01635832798238
O           0.43552492093758    3.45516318021906    0.37151925371113
H          -0.22289339554794    4.03368502083390   -0.00155242563670
O           0.58756205390481   -2.38957571091447   -0.32355201581851
H           0.27344458374423   -3.15299298488418   -0.80965892588482
O           1.40057918655591   -0.40546439772684   -2.19727137237148
H           1.39280716365132   -1.23270506112474   -1.69668350726956
H           1.35917580964728    0.29130536760070   -1.52028915630004
O          -1.24103083829666   -0.09594417376408   -2.74731554637735
H          -1.30003253025705    0.83402626928792   -2.48254389322403
H          -0.27775077425424   -0.26415186367375   -2.80639326591806
O           1.90128435398959   -0.86737001916437    1.51271967942809
H           1.80415226246057   -0.04877961565766    0.97973553986673
H           0.55542342546123   -0.76989041986162    2.18975419607765
H           1.76083493039166   -1.58719272550600    0.87634791538435
O          -1.44765792031735   -0.65918011251030   -0.19504887963686
H          -1.54076430426456   -0.58168704476104   -1.18411978683528
H          -0.16989944284434   -1.75790749908183   -0.28033751667136
H          -1.34335592531372    0.25712764511394    0.08981505368690
N          -0.48155948469197   -0.56671879656042    2.46309467973235
H          -0.65367218871857   -0.63340050515484    3.46025872104933
H          -1.09510127499262   -1.18420956376218    1.93039445276847
H          -0.67455979592285    0.42413317547703    2.09102979077578
