    26
        -50.46547032  Gyration_radius:  2.523077152 Dipole_moment: 4.985
 S           0.46291842693399   -0.55037417174766   -0.51212312432986
O           0.88051657502423    0.27107122465796   -1.63227118833202
O          -0.73183169155982    0.23519895921012    0.13067593465344
O           0.00610285059397   -1.87228101187330   -0.85761540920418
O           1.52142182716715   -0.57234920462012    0.52044435765682
O           0.53357333386408   -2.67218439124764    1.84085827085018
H           1.03757191618418   -1.93515441678611    1.44878129036805
H           0.37774228976025   -3.28000642879306    1.11227848695936
O          -0.13896133517841    2.63716633887123   -2.17259770472716
H           0.21266158655252    1.72526482405855   -2.05055651544788
H          -0.88436208410872    2.55412754666360   -2.76815262836528
O          -2.41045160938156   -2.86006577042008   -0.34919690534024
H          -2.97756380629596   -2.68876338412186   -1.10169340061308
H          -1.50745407064502   -2.59115290447388   -0.61929821135853
O          -0.15074152147339    2.90112940823172    0.47774904524922
H          -0.60129797888708    2.05232386369725    0.61783382770871
H           1.30962679965740    2.39262302030034    0.37321253936511
H          -0.28471160101641    3.08346356419679   -0.47713901133494
O          -1.77105426758206   -1.34469679987686    1.78303968909316
H          -2.25694476399300   -1.93465383810918    1.17296584784291
H          -0.97601449157642   -1.86502412345610    2.04761204155269
H          -1.18438327350867   -0.37662384183802    0.83658009749556
N           2.20486900735347    1.84251454418533    0.12119836609534
H           2.01357865943272    0.80625391232365    0.39917665711442
H           3.03998511087031    2.22209157701727    0.55580943256060
H           2.27520410181192    1.82010151394869   -0.89757179551214
