    26
        -50.46183269  Gyration_radius:  2.40571162321 Dipole_moment: 6.572
 S          -0.03475368233825    1.83903139074222    0.81073121714719
O          -1.27899398014499    1.32583111295203    1.39860798871173
O           1.11285637338005    1.59694046936789    1.64119136056785
O           0.09787735682884    1.39886731465098   -0.56446235121405
O          -0.21178293569719    3.41615527723507    0.74126986143379
H           0.13473392958281    3.71661513149066    1.57614226633171
O           0.27577038572755   -2.06795223239170   -1.34315056176463
H           0.70956856372108   -2.91973671854396   -1.27971270771293
O           2.64517354591616   -0.66938834577293    1.28634475932625
H           2.76690756564611   -0.50743648703272    0.32783057298654
H           2.41153859917180    0.20058275692813    1.64262304702255
O           2.27603769287343   -0.04082289454774   -1.32976755284054
H           1.74656887773247   -0.79151989702776   -1.63146392818059
H           1.62363499336263    0.63993882837512   -1.09225226437615
O          -1.40200267426440   -0.08626637813870   -2.16551128732903
H          -0.80464335728520   -0.84780763942920   -2.24253199662285
H          -2.17031624995921   -0.40753083807167   -0.90547344277140
H          -0.84779448997962    0.61884882960220   -1.76656040995764
O           0.06553627154570   -1.11734699785455    1.14825599122036
H          -0.17664078063621   -0.20404982870306    1.34518114076485
H           0.20171181014974   -1.72559474965950   -0.42022341230374
H           1.04749631257829   -1.13455749122801    1.31666571188136
N          -2.50935148770390   -0.54939135726065    0.12200279315556
H          -2.11673937001689    0.29561801416812    0.66011795245265
H          -2.04439536629738   -1.36692332880914    0.51808508859624
H          -3.51799792387702   -0.61210395101106    0.20606017345656
