    26
        -50.46183273  Gyration_radius:  2.40575152537 Dipole_moment: 6.575
 S           1.26203803353242    1.56460902476265   -0.01151676042737
O           0.51783094238025    1.90337157647322    1.20852448418379
O           2.41876315997364    0.75321707130406    0.25107025697867
O           0.36600253642807    1.04703574203339   -1.02725867382460
O           1.80388711706075    2.94522479415267   -0.58068647724377
H           2.65520841821611    3.04006114163501   -0.16399741145505
O          -1.50476280332069   -1.92284541219881   -0.44396429111252
H          -1.55053653304536   -2.86272430329680   -0.26432552576594
O           0.77840351171798   -1.43075181332486   -2.07316589582071
H          -0.09283577881164   -1.75293945093312   -1.80465781389909
H           0.77082555144678   -0.48517479605963   -1.84663156929858
O           2.25592691594680   -1.99809887629480    0.13379193022178
H           2.68825614538603   -1.13392397609990    0.20208631442450
H           1.86059816116914   -1.99447653674750   -0.76256529835331
O           0.20716827224512   -0.87710591214398    1.32543795008387
H          -0.87248662639566   -1.54568159747078    0.21362785380116
H           0.96994778838895   -1.44955005134620    1.03663046892794
H           0.56151042890717    0.01753078679089    1.25065380178055
O          -2.24565477973790    0.61050605725651   -1.11581251330169
H          -2.19116918239903    0.87020843024713    0.37100745951369
H          -1.32182524610590    0.88723243029088   -1.29870461527636
H          -2.21942868616107   -0.35921878566021   -1.15708080242968
N          -1.89599288796948    1.01330819801521    1.41178327732044
H          -2.56765022008507    1.55105696988338    1.94849686303725
H          -0.94073339882591    1.50583568548663    1.36130245329478
H          -1.71329085981079    0.10329361313924    1.83595454465305
