    26
        -50.46183256  Gyration_radius:  2.40568934806 Dipole_moment: 6.583
 S           1.90337164288296   -0.17354016722370    0.62269248582432
O           2.41121037480185   -0.43900095988731   -0.69523971169209
O           1.72383647200626    1.26078569206396    0.88303652909669
O           0.70618580260796   -0.90949331861017    0.97995926171258
O           3.02400918541376   -0.65702480697440    1.63948162475239
H           3.83380871311243   -0.53352637767115    1.15340036248553
O          -2.38494842961230   -0.22713891596179   -0.64462487559592
H          -2.92834954793201   -0.19508657609817   -1.43291522170917
O          -0.57614239334572   -2.41372284340110   -0.88969495468412
H           0.00165360993498   -2.04914074948489   -0.19766930759236
H          -1.40744458441912   -1.92944621318195   -0.79343726866296
O           0.68245501096618   -0.93220669738422   -2.78634153584028
H           1.53513889986327   -0.87214994432981   -2.33047064116795
H           0.20477251330537   -1.63721473656835   -2.30212468502965
O          -0.09667099670312    1.02784091252612   -1.22897166786189
H           0.13303221458116    0.41673971095780   -1.98175321953772
H          -1.54400759233315    0.23872068269957   -0.86899702248701
H           0.68579344613350    0.98861710160854   -0.66521669771312
O          -1.64639740649211   -0.20984577035872    1.97703318503537
H          -2.18908633509699   -0.41143595347379    1.19759063805065
H          -0.78291888331814   -0.63752637790154    1.78992619694821
H          -1.18414801286476    1.19874437085664    1.68965246557216
N          -0.67775870389332    2.09510568486750    1.32751294585463
H          -0.97816168379390    2.28613643264677    0.37116181709805
H           0.35847559530849    1.81506255402455    1.25507658189599
H          -0.80770889110973    2.89974728626543    1.93093273523407
