    26
        -50.46183264  Gyration_radius:  2.40577597994 Dipole_moment: 6.564
 S          -1.11564706442853   -1.64438284596898    0.30390064325917
O          -1.79643588354979   -1.14626141290885   -0.89829262973612
O          -0.03862873446202   -2.54577761771603   -0.00094954901065
O          -0.76695427598776   -0.54558649700286    1.18352928360682
O          -2.20200674016450   -2.49598228344061    1.09037030374783
H          -2.08548666140856   -3.37747085282132    0.74870244382145
O           1.43894380059954    2.02080048389799    0.08272810457560
H           2.29710501750114    2.31156212254941   -0.22832034703661
O           1.82806780398070   -0.14131044500345    1.89472474662703
H           1.84823476107021    0.75540161050355    1.53359049869320
H           0.90160896799679   -0.42204619197289    1.80296709144709
O           2.53855149917282   -1.60396490816621   -0.28041371305536
H           1.83613187129677   -2.26639035231574   -0.20170900074727
H           2.52529127453122   -1.14151393942576    0.58313815082728
O           0.73767752732554   -0.07707885922838   -1.42046355315392
H           0.00030782249306   -0.65963003864926   -1.20017263226522
H           1.18835302929399    1.24803870533632   -0.47824564232046
H           1.53728506074758   -0.61667004727025   -1.17070848653482
O          -1.10356878003004    2.07880581496893    1.05557857262921
H          -1.07530675414336    1.13640508756240    1.32900521440416
H          -0.17042523917866    2.33048000737007    0.96202736942970
H          -1.50927864033770    1.81129705690693   -0.37365604813492
N          -1.68199958231433    1.38934856193849   -1.36543868465736
H          -2.45241516783527    1.82715475671333   -1.85854829563357
H          -1.86402719194431    0.34345080286079   -1.19078278227602
H          -0.81537772022201    1.43132129127675   -1.90256106850886
