    26
        -50.46183216  Gyration_radius:  2.40583531234 Dipole_moment: 6.550
 S          -0.10650531538427    1.22550981821646   -1.59024267053767
O           0.03176515197376    2.24688845146037   -0.54419106762357
O           1.15878077604249    0.79973681216339   -2.12243780230651
O          -0.97675066349818    0.15478529224712   -1.14390877080715
O          -0.87616478733531    1.93553099699753   -2.78491296644952
H          -0.17424788842677    2.27295067510074   -3.33335652126049
O          -0.12330642766393   -1.79782157407542    1.70666422886066
H           0.46090032225692   -2.40541951375633    2.16193583833928
O          -0.05978886486349   -2.40591966323618   -1.07439512095575
H          -0.42873713334995   -1.53541831968785   -1.30168927259402
H          -0.22909509910807   -2.50274595804277   -0.12732822716582
O           2.45834567927471   -1.38870500247431   -1.05955232453237
H           2.29057160368946   -0.67065553806413   -1.68778033796576
H           1.67572925836329   -1.97078442651515   -1.15118202080091
O           1.40246883012434    0.18167107469277    0.75512580199780
H           1.08538584876245    0.83027012479519    0.11454174816207
H           0.44806293999953   -1.07076639429699    1.36085664156851
H           1.97331503947830   -0.42236098063717    0.20540370970441
O          -2.31577062803495   -0.30308792123012    1.09540316655820
H          -2.03823827058212   -0.18441549595256    0.16129815829448
H          -1.80868708135118   -1.07254089092472    1.40142317867033
H          -1.51020929170113    0.85065881972735    1.64189642830323
N          -0.77585147940442    1.63610474649116    1.82980715658440
H          -0.51259369215474    2.00487739061684    0.85402949147120
H           0.07558720325430    1.21568631486569    2.20350307931715
H          -1.12496601027785    2.37597116175625    2.42908848510351
