    26
        -50.47150105  Gyration_radius:  2.42619194863 Dipole_moment: 3.429
 S           0.71343666269323    1.67192470516186   -0.48428639157357
O          -0.30610713834225    2.66064425337177   -0.16974995990056
O           1.21469794294617    1.02364494586117    0.71850555028444
O           0.28377160900866    0.72246285852482   -1.49137292432673
O           1.92897572828162    2.45582614408486   -1.11830465697164
H           2.13935942631211    3.08862998416296   -0.43999555594203
O          -0.50287999855166   -2.28620947181783    0.88301780992807
H          -0.50478253230358   -3.21489307671492    1.11639013638878
O          -1.87304680182270   -0.77071776127774   -0.93876556593675
H          -1.47516037472979   -1.44900242626827   -0.36088292973028
H          -1.11476528541468   -0.29298358844720   -1.32822360828405
O           2.01590073529790   -1.08811551700326   -2.39702469503852
H           1.57619448972560   -1.54804709086935   -3.11389170371319
H           1.43908342223148   -0.33413423980853   -2.16182437104732
O           1.90697480334212   -1.54232849853249    0.28720999925050
H           0.44382102086499   -2.06294555574992    0.63248428003894
H           2.09463131447677   -1.56170915100037   -0.66894161668771
H           1.80539808252366   -0.59558454976836    0.50081383958420
O          -0.56503263054515   -0.03017892776581    2.45215183561440
H          -1.68978562802839    0.71944060644440    1.63054612609424
H          -0.58243552608402   -0.93527861261153    2.08881161543389
H           0.20351321960724    0.39086071639101    2.02002762700938
N          -2.20710318676293    1.15578175220608    0.80379660947721
H          -2.28973389866966    0.38657513143483    0.06945652438763
H          -1.55122015482502    1.88476365003511    0.40782803097760
H          -3.10370529125332    1.55157373995805    1.06222397468798
