    26
        -50.46633012  Gyration_radius:  2.51090491267 Dipole_moment: 2.619
 S          -0.27304456203656    1.80258493290907    1.02673674019601
O          -1.45718986125171    1.77591982827976    1.85225457301541
O           0.76068248239251    0.87309044807850    1.51079724019847
O          -0.49623284015115    1.64442351280352   -0.38617055268675
O           0.35811468590033    3.25280133154434    1.22296898361570
H           0.11684988640525    3.45471983998192    2.12115715159127
O          -0.69343320762092   -1.31180505507643   -1.98513888662693
H          -1.54673375359770   -1.04938260549594   -2.33316102121979
O          -3.16376362443807   -0.13817054845654    1.22842766287473
H          -3.64172798264138   -0.32338254845139    2.03892830505960
H          -2.63976805551117    0.67417787501415    1.40633698017406
O           1.28399600595440   -2.67813991762980   -0.34615328754528
H           0.56446949906612   -2.45150502519926    0.26619466817159
H           0.86252801373699   -2.71001671574933   -1.21258629351321
O           1.02899127872542    0.74795766705748   -2.33782751206514
H           0.46173507231976   -0.03553422431548   -2.48641356831460
H           0.47181347936650    1.30822764494010   -1.75726801409587
H           1.94447997445189    0.21142355739026   -1.21606878283430
O          -0.75911337036553   -1.19238348545319    0.71954787751121
H          -0.25485803565374   -0.44741541757540    1.09059418863848
H          -1.70030011583095   -0.98007891532445    0.89576167810271
H          -0.76222422129537   -1.18950403210347   -1.01108231936348
N           2.33119758369420   -0.20818368308923   -0.30080913600875
H           1.79314577001939    0.26348630495879    0.47873809500450
H           3.32842684088262   -0.06205860749519   -0.19678005570371
H           2.08195906745863   -1.23125216155420   -0.28898473417604
