    26
        -50.46133384  Gyration_radius:  2.45410662354 Dipole_moment: 4.907
 S          -0.65818044915872    1.57710101261603   -1.25678861134627
O           0.78243721576682    1.62739908378692   -1.11442253848244
O          -1.17534856737631    0.22609404402290   -1.31079419301126
O          -1.32560318010136    2.38140328211765   -0.23266828811118
O          -1.00763526688280    2.24701522378694   -2.64574120157596
H          -0.59055984092267    3.10054714431669   -2.58174391947723
O           0.17766477880981   -2.23907594377313    1.01457095190676
H           0.83476746652879   -2.83479926912972    1.37655271816570
O           0.78797522122847   -1.61689128944403   -1.67906360383452
H           0.46677729154846   -2.17434504851569   -0.95736254769380
H           0.14841185666959   -0.88462933451802   -1.72398805110374
O           3.09170648487120   -0.77227035527461   -0.54469602927049
H           3.35311025366020    0.01014177887694   -1.03402362684098
H           2.33640139628024   -1.14557586915162   -1.05497349137611
O           1.25548432968196    0.24455106156288    1.06473022756849
H           2.11579949510440   -0.13774001986416    0.77864373561080
H           1.04028716471965    0.81071776685939    0.28675414778934
H           0.57433075168541   -1.33814561125771    1.03929978372271
O          -2.29712764545861   -1.13426287736376    0.69728520330581
H          -1.77410236204851    0.04678301055725    1.54761361402029
H          -2.09391683302528   -0.72324437517627   -0.16805657198147
H          -1.60874770405074   -1.80856152372232    0.81565298018437
N          -1.24456250007736    0.92370429241963    1.88840875898612
H          -1.61029643508340    1.29588381359895    2.75768421493835
H          -1.33619850126576    1.62630130171291    1.07953798923638
H          -0.24287440110765    0.69189870101215    1.95758834867208
