    26
        -50.46633015  Gyration_radius:  2.51123026073 Dipole_moment: 2.622
 S          -0.03018865046935    1.93961054516642    0.78676940039818
O           1.16131463251470    2.67751672644500    0.44018974329920
O          -0.86418377666238    1.64952259975155   -0.39118277282503
O           0.17884249551549    0.75795957169812    1.58129620449457
O          -0.90866619478559    2.92933025118332    1.67477250007896
H          -0.68387815917992    3.77811769895784    1.30763504462705
O           0.86567898455510   -2.29848070786298    0.33847395473161
H           1.64838607963563   -2.33162440469828    0.89015863560454
O          -0.78761329851101   -2.03885789275685   -2.04078697793744
H          -0.39081917668768   -2.69750211206557   -1.45930776548582
H          -0.10470231743588   -1.35413226363333   -2.13457549334118
O           3.16807346409952    1.16729900516147   -0.37029949744059
H           2.51083866316178    1.75869792187199    0.05920306244263
H           3.69277945531725    1.73119070315708   -0.94160083047829
O           0.98158559069562   -0.10256500019334   -1.24145550904240
H           0.36080853556629    0.60024921523084   -0.98115607364109
H           1.87307372933118    0.25301968619369   -1.03962906532596
H           0.93764217915911   -1.45468816488049   -0.16293007196018
O          -1.20889825401547   -1.46307122434600    1.86571248308709
H          -0.51344575749971   -2.00960561714875    1.44698076114221
H          -0.74725399034776   -0.61236686646783    2.02239572117823
H          -1.98199788980528   -0.99997572335681    0.61178792776593
N          -2.26199468107450   -0.57784279719259   -0.34038990520572
H          -3.26609764786694   -0.49784469270799   -0.45012575764381
H          -1.83211220568701   -1.17591637678107   -1.09296028635049
H          -1.79717181951058    0.37195989927144   -0.37897544217287
