    26
        -50.46633014  Gyration_radius:  2.5110413993 Dipole_moment: 2.621
 S          -1.20359485472447   -1.03932122849010   -1.36043307922285
O           0.04829671478660   -0.44021093399295   -1.85128614634863
O          -1.09220998312982   -2.46883517834638   -1.19185421612651
O          -1.71755511700896   -0.31736223192347   -0.22646713752392
O          -2.25017359565416   -0.82374744601216   -2.54286175569807
H          -2.09771213125166   -1.59032271396482   -3.08590702159571
O           0.14874060227036    0.83286099041290    2.32966194533424
H          -0.42013477911455    0.35887987777469    2.93776697699618
O          -0.05952839257372   -3.20523635822093    1.12241760349962
H           0.34208257724133   -4.06048972605558    0.95834691589226
H          -0.57931665412388   -2.99424005806968    0.31526940660217
O           2.48647127467543    1.49314848482074    0.72844260701407
H           2.38854582971799    0.53019306194357    0.64373464154185
H           2.05096514813958    1.70772634235483    1.56129875594432
O           1.18282088677074   -0.91102852536177    0.53452933687778
H           0.86240479672642   -1.77367486266182    0.87380728965413
H           0.80029218135252   -0.82838917715992   -0.35644783408356
H           0.44185884822322    0.16150774974305    1.67249807860634
O          -1.42330899042286    2.17348710103135    0.57880943108359
H          -0.92637706955248    1.90759555020959    1.37883214548179
H          -0.27042215838218    2.24305728107017   -0.44616209797507
H          -1.79130261018214    1.32150767762247    0.26248438487239
N           0.57384252727978    2.01843027319739   -1.07862227403994
H           0.37282964028856    1.06679478305228   -1.49526349282283
H           1.42021316823572    1.92497106734581   -0.45906154400620
H           0.71227215041269    2.71269817967969   -1.80353293995859
