    26
        -50.46133386  Gyration_radius:  2.45377013994 Dipole_moment: 4.921
 S          -0.04646489615910    2.06953406765934   -0.45858244196404
O           0.63122726379283    1.50703104814332    0.69021503150339
O           0.15729169527197    1.30098023413845   -1.66933186100263
O          -1.46906588772374    2.29655747462732   -0.20165479111045
O           0.59325171276788    3.49448471509398   -0.70401611679109
H           0.16090431796042    3.78738757000820   -1.50013313496764
O           0.49635083430931   -2.10516571927798    1.18252432135556
H           0.69935111787840   -3.02350588620223    1.00036289990465
O           1.60264135245308   -1.69299093386268   -2.23857388252434
H           1.60872364938370   -1.03321898704339   -2.93482929965429
H           2.03755093721414   -1.25193940750415   -1.47274995120056
O           2.42751416821604   -0.41036247988577   -0.00645958464816
H           2.09150611138858   -1.03291703493264    0.65253454548384
H           1.89940959509456    0.39584204843476    0.12888024554326
O          -0.68088793311369   -1.10499082340755   -1.04121323131991
H          -0.43416556628282   -0.17701464984506   -1.26491587431119
H          -0.03411970585124   -1.60206327389506   -1.59158416762724
H           0.06547584892001   -1.74888450763714    0.37188930721757
O          -0.46320280495123    0.01006805354353    2.61472553259326
H           0.04007757398334    0.68406976441480    2.11329734024075
H          -1.67575611627208   -0.01276516855261    1.65476277262381
H          -0.01412441644774   -0.82770089952099    2.41718130963154
N          -2.31182574557678    0.07350748559805    0.78683581647013
H          -3.29682819466073   -0.02816144434516    1.00444327650869
H          -1.99783243205684   -0.61194826052641    0.08440918413808
H          -2.08700246955489    1.04416701478768    0.38198275393669
