    26
        -50.46633004  Gyration_radius:  2.51145804726 Dipole_moment: 2.615
 S           1.16882832786474    1.33600643228381   -1.11078730241446
O           2.51304453261426    0.84446714791772   -1.29998392679798
O           0.17430690583316    0.51669334439093   -1.82254505538897
O           0.77567977984185    1.56313445610255    0.25491830566093
O           1.12210373621136    2.75505450086658   -1.83478242907193
H           1.73997758949478    2.63389266681845   -2.54849326897539
O          -0.54621782607286   -0.77909394392028    2.29019873019916
H           0.14406079869548   -0.59623462328502    2.92912384891272
O          -2.05373732045208   -2.16282657051257    0.22417494084428
H          -2.02619383017460   -2.01722236612730    1.17678176066037
H          -1.12275235100790   -2.26859743273580   -0.03273581960388
O           3.19592446517997   -1.08979903404336    0.36066494072215
H           3.86843990474075   -1.59291219930108   -0.10223797786101
H           3.04767237289536   -0.28162106057003   -0.17879425948042
O           0.58459477232021   -1.47301825975496   -0.06957971771857
H           1.53857158140751   -1.50364695904240    0.15637112978656
H          -0.07551899272146   -0.96384351181376    1.44576540756865
H           0.50658511025427   -0.78905966526799   -0.75743589580952
O          -1.57133386344315    1.58279234875092    1.45091933852697
H          -2.10222545030577    0.92516426785340    0.15881813088651
H          -1.36507471412544    0.78440111592737    1.97794847836094
H          -0.69527131314551    1.83168637614252    1.08765047771647
N          -2.21498483146413    0.33682325987240   -0.73816227333995
H          -2.29785066081098   -0.67230751311304   -0.44903222669021
H          -1.30526436000266    0.44673121660548   -1.26740669346020
H          -3.00336438384701    0.63333601580307   -1.30135862327002
