    26
        -50.46633010  Gyration_radius:  2.51132995947 Dipole_moment: 2.617
 S          -1.08922962830769   -1.53899317128290    0.91047828500249
O           0.28152960693495   -1.27886540995040    1.37997548098324
O          -2.08267404525342   -1.02675290268650    1.82424694495265
O          -1.25098014205611   -1.15126479749063   -0.46601096101993
O          -1.24074230216386   -3.12494121879401    0.95218573340338
H          -1.52324770751159   -3.27366147253616    1.84879805028475
O          -0.02189393047902    1.67919764813889   -1.82488327712493
H          -0.90396763934642    1.90310024027423   -2.12472669087303
O          -2.64995039585165    1.52706818800995    1.47537741464222
H          -2.94980729055953    1.83744067058401    2.33178455011688
H          -2.58585599127403    0.54928124962588    1.55248367057460
O           2.42086750347349    1.73875338203367   -0.24718231851286
H           1.70225476710346    1.82935624478682    0.40046070006443
H           2.04239678142269    2.05867343635346   -1.07408384377314
O          -0.05476486603588    1.33202397838082    0.86012255661832
H          -0.11196860448287    1.50760155163126   -0.85993814006086
H          -0.97351101676733    1.58495456661608    1.09238741848235
H           0.03208226458078    0.40280611877661    1.13593902224202
O           0.45521613278651   -0.91022624770572   -2.45850855826937
H           0.34048568516618    0.06056817709898   -2.50457535372906
H           1.55094924666943   -1.00273734233270   -1.37454838783483
H          -0.28638692139965   -1.18605779120561   -1.87941277145789
N           2.12234006841173   -0.91907496321279   -0.46358558076951
H           2.92230966502946   -1.54073733989970   -0.44765126031605
H           1.44683117938797   -1.14649854569244    0.31856574781321
H           2.40771762050533    0.08898576046556   -0.35769842142887
