    26
        -50.47000308  Gyration_radius:  2.46318873797 Dipole_moment: 2.784
 S          -1.20860724677945   -1.80498913120985    0.43422097967872
O          -1.49414030946282   -1.67177096760466    1.84201442357017
O          -1.89072788307924   -0.86024581518871   -0.41573619319661
O           0.23322840207738   -1.82493136021742    0.13902124975015
O          -1.71418316488499   -3.26304895461439    0.03680673260557
H          -2.29470584258465   -3.45887311250852    0.76446249233715
O          -0.35970614955988    2.49973199711589   -0.06042262043304
H          -0.66964467065458    3.35453652133178    0.24096886918273
O           2.16733561608548    1.44974505017097   -0.34567170518648
H           2.21947100049262    0.90930925610834    0.46014275869833
H           1.37317014575535    2.00517903232798   -0.23681273889887
O           1.79399889575065   -0.38831152791177    1.68865229813469
H           2.24886145066321   -0.94719241583504    2.31984826606979
H           1.22862410101029   -0.98734390766624    1.14419249259142
O          -0.66398999571749    0.85371851675696    1.95576972826703
H           0.25756575861050    0.59779948779841    2.11629108908707
H          -0.57654855206450    1.85952677971265    0.66896882559579
H          -1.15098851537872    0.00917401501088    1.93778753457602
O          -1.29225716405179    1.02090047370459   -2.17610602020068
H           0.05357236026443    0.23102938465037   -2.18273977668020
H          -1.75092561092039    0.35159127253469   -1.62961773561243
H          -1.07013823259238    1.72862405400400   -1.54413736502176
N           0.94140333141159   -0.30113096166726   -1.89712137661193
H           1.39655088489403   -0.74559339017962   -2.68544825271064
H           0.64693603768219   -1.00886120688864   -1.17369967787590
H           1.57584536446840    0.39142690184271   -1.40163427855641
