    26
        -50.46633012  Gyration_radius:  2.51140733918 Dipole_moment: 2.619
 S          -0.74167102500966   -1.91251069549656   -0.41996129930192
O          -1.13448541324942   -0.80005993877233   -1.30042090914608
O           0.26073652685942   -2.75672154014278   -1.02561506464843
O          -0.44213173377406   -1.44533470255894    0.90791996864963
O          -2.04898317784089   -2.81547105110842   -0.29527528006056
H          -1.96708135136026   -3.38839936236082   -1.05080082958664
O           1.32152757062538    1.34013083853648    1.61520398816441
H           1.91607241176028    0.81248278558629    2.15019681188243
O           0.33106662977837    2.90524530460688   -0.62748168096318
H           0.72246389242105    2.99639822361245    0.24879990882373
H           0.81066326874378    2.16349327268385   -1.03220864457082
O           2.73261360566181   -1.88518287650337   -0.71646308565140
H           1.85519048430410   -2.32785260923284   -0.73507729888299
H           3.21943026679245   -2.23883435138902   -1.46317719438700
O           1.26114929377486    0.34013015874187   -0.90006484146597
H           1.29669640143393    0.89373504049182    0.73841390587860
H           1.94377201906399   -0.36318323781341   -0.86254978907218
H           0.43188287112743   -0.11986201056941   -1.11869509152516
O          -1.22093473162977    0.67281870843864    2.26654939254672
H          -1.05592936625440   -0.24433277335946    1.96157116958071
H          -0.32251887979677    1.06084276208834    2.27237311462564
H          -1.73737785666857    1.20417317081072    0.91213137074100
N          -1.86251672685036    1.44137060665999   -0.13266932439655
H          -2.78854785567989    1.79460549471599   -0.34320569485607
H          -1.66979916791982    0.54122444136876   -0.65443466909933
H          -1.11128797631735    2.13109434094103   -0.39505893328283
