    26
        -50.46547028  Gyration_radius:  2.52327063466 Dipole_moment: 4.990
 S          -0.60280041620640   -0.29807364100229   -0.57172493838954
O          -0.27290206335416   -0.73409990129527   -1.90455052948565
O          -1.68153586627695    0.66787320815337   -0.48712021808409
O          -0.86619562107809   -1.43055137813525    0.34228544856806
O           0.64050270062438    0.44385889639022    0.02962579851230
O           0.94181752042285   -3.05928545847323   -0.75644559565408
H           0.22074955805436   -2.60706410914698   -0.28058045444829
H           0.72264907429427   -2.96169397019625   -1.68757448962899
O           2.09529587216900   -0.45993834382243   -3.08407232243094
H           2.10364436078995    0.36610434146131   -3.56896078847422
H           1.17636944174520   -0.58200296744902   -2.76573699684352
O          -1.44964115160728    3.02833096817439    0.65541988462587
H          -1.18020632939484    3.68735082114255    0.01481158638040
H          -1.55490127385039    2.18853456487244    0.15174839812650
O           2.61855567606125   -1.00972725082339   -0.50045642655897
H           1.48503221701304   -0.13164464804728   -0.15205236301019
H           2.18788551518541   -1.89695472834763   -0.49157451341273
H           2.73279270419382   -0.80327099752769   -1.44952476455962
O           0.05000433168063    1.69445504508902    2.40713742141138
H          -1.13256805929333    0.69216574794469    2.41168906379536
H           0.59638473225501    1.28659675490400    1.71557888551845
H          -0.41104366120044    2.42512800175967    1.94197576591787
N          -1.93663752958975    0.02977122414612    2.12519359810304
H          -2.57514497169614    0.56090410767167    1.53055653402820
H          -2.40971853181211   -0.38793359139195    2.92026565847868
H          -1.49838821913250   -0.70883271604846    1.45408634751254
