    26
        -50.46547033  Gyration_radius:  2.52325700234 Dipole_moment: 4.984
 S           0.69756906636436   -0.51797804890533    0.15699827470489
O           1.28252313823184   -0.73490254660257   -1.15243776996486
O          -0.76616483104132   -0.04021973756720   -0.13805072952233
O           0.63542645938865   -1.68328731294458    1.00176752421381
O           1.35879559473477    0.62529799361300    0.82251857052688
O          -1.58145644568338   -2.74888887782685    2.01404209962808
H          -0.70864129007970   -2.46620393343657    1.66922454946948
H          -1.90324886240174   -3.42021042295476    1.41140104743508
O           0.05356319926676   -0.18578717781039   -3.41483468510303
H          -0.43401498991852   -0.94892635418667   -3.72650317825475
H           0.51613138422717   -0.47660493180191   -2.59537238894932
O           0.42574664432169    0.06431145486398    3.26053235104344
H           0.87687675651301    0.37203491037051    2.45262411942910
H           0.62747168325051   -0.87431561336386    3.31383612748429
O          -0.84726116982298    1.92443233204125   -2.06177879089433
H          -0.70410833102570    1.26868479382505   -2.77762445862506
H          -1.14808626720677    1.38712889704518   -1.31089657298244
H           0.64008568161551    2.09974155014618   -1.66132334057927
O          -1.95159306539322   -0.08197296176033    2.07560888787239
H          -1.19680177331390    0.11511818848561    2.67913478063022
H          -1.29261560429070   -0.02587264425347    0.75624657627226
H          -2.09757777450063   -1.04391079304923    2.17341339353907
N           1.65668597914218    1.93426834876333   -1.33506011915718
H           2.04903727484048    1.19181082733211   -1.91658341635227
H           1.58946834472020    1.48923901321167   -0.34236494418309
H           2.22218918806121    2.77701301677535   -1.35451789768630
