    26
        -50.45942956  Gyration_radius:  2.4243161556 Dipole_moment: 1.896
 S          -0.69450645565573    1.65775645169224    0.58738011627985
O          -1.91486662483381    1.98973883895030   -0.14007540346855
O          -0.88203556568266    0.47491578180816    1.41572254404853
O           0.46750573087826    1.55358183019420   -0.26602544063305
O          -0.42787081722656    2.86711462334561    1.56439954639631
H          -1.29475294628149    3.01007332599749    1.92867091649570
O           0.29074239679212   -2.38211410265665   -0.59931945990303
H           0.69280532833438   -3.24289796747575   -0.71728076210775
O          -2.37881648716649    0.07699437772348   -1.68889599669900
H          -2.44190776364252   -0.67356550755815   -0.94417735508922
H          -2.30685841348432    0.94291992459402   -1.13364337364585
O          -2.15121471499630   -1.52599590656017    0.21354061307540
H          -1.37324235277588   -2.05405900643322   -0.05649985994873
H          -1.79341458944302   -0.85400596663486    0.83387814732429
O           1.23928998230424   -1.21712105637663    1.48802090489405
H           0.71779410770093   -1.97686008688149    0.22218095048720
H           2.00463871554088   -0.65160717373956    1.23342632971096
H           0.50324330414461   -0.59594866088603    1.63311452258511
O           0.05306926391497   -0.21241200371627   -2.19303148306430
H          -1.40144438515839   -0.05187653732752   -2.07476035995212
H           0.35571124878901    0.49265190156370   -1.58020185396957
H           0.25155920450450   -1.05937134073276   -1.74216390084376
N           3.04341716973398    0.61847574455927    0.61584737090473
H           2.24702442041176    1.13563846480136    0.24587932572507
H           3.69371286110053    0.46938192661175   -0.14541823361882
H           3.50041739228626    1.20859213505084    1.29943219500676
