    26
        -50.46133206  Gyration_radius:  2.45067694088 Dipole_moment: 5.012
 S          -1.39377462168077    0.59983682903309   -1.46994576961222
O          -0.45707486038685    1.49636306422311   -0.82637062944862
O          -0.80015338124533   -0.66700244051236   -1.84542362148763
O          -2.60632771671166    0.40741570000088   -0.67368942857604
O          -1.84835938229223    1.30977023746831   -2.80735137289584
H          -2.40242556219923    0.65389128083225   -3.21875835874959
O           1.81007209664787    0.11560975720572    1.67838916915238
H           2.54605313038880   -0.39940294482092    2.01116195130343
O           2.11652603659897    0.65878514864342   -1.08387120440482
H           2.29850078279635    0.76116455520182   -0.13985010034705
H           1.20063357735864    0.96978060672183   -1.19090287463054
O           2.16213103448874   -2.04160962201853   -1.24105182819186
H           1.65597957263081   -2.25128025424769   -2.02856876588333
H           2.26905017226971   -1.06334555546574   -1.26880484547551
O           0.14868665964866   -1.60517977809459    0.41486249012534
H           1.20861760809055   -0.51802827411019    1.22344616302999
H          -0.27991889693807   -1.25068636249125   -0.39900356208574
H           0.92744540664429   -2.06077111708505    0.02202770239893
O          -0.21309608040283    1.94231171779779    1.79682913338026
H          -1.17087333737059    0.73467240667019    1.90712325126892
H           0.66052875338683    1.53996938387839    1.92961174348214
H          -0.29523664445089    2.03897767004610    0.82576023094103
N          -1.75766655271609   -0.14637156089621    1.69324880563315
H          -1.11365902146811   -0.93076313136562    1.51645080335968
H          -2.23555159308091    0.06799972268712    0.75396824898541
H          -2.43010720043214   -0.36210700943507    2.42071266860746
