    26
        -50.45942956  Gyration_radius:  2.42429890024 Dipole_moment: 1.895
 S           1.63784362013245    0.93673948788514   -0.12498356131181
O           1.69465951436894    2.00570990332196    0.86636178368265
O           1.61450185737286   -0.37157444121227    0.51391643756570
O           0.56600825241807    1.10187211333597   -1.08066954702272
O           2.98518837698496    1.02746699350166   -0.94026374231852
H           3.62196157149318    1.13166399816255   -0.24142504582619
O          -1.94120868916949   -1.30565234281480    0.80322758016325
H          -2.66683237853158   -1.92987690728539    0.82141653139277
O          -0.42530586221054    1.87709013666127    2.19378182721526
H          -0.29647654931104    0.88345322267462    2.53749420098192
H           0.47166944762394    2.07348931245246    1.72457766974439
O          -0.03812266868867   -0.55945325131506    2.58583485201961
H           0.69931296057291   -0.62195090748966    1.94031897512809
H          -0.80302606636868   -0.96371334671758    2.12917511717519
O          -1.76310894599948    1.31291199259403    0.15803689729958
H          -1.10578936191148    1.76494099605042    1.39065208336990
H          -0.99366750117292    1.29395640455087   -0.45177890973698
H          -1.99382403563617    0.37518072744693    0.32361467712471
O          -0.02236996502993   -2.18866892626734   -0.66384350705815
H           0.69139808484626   -1.64922773216773   -0.27887935242663
H          -1.23495230663351   -1.70509362144802    0.20065620099461
H          -0.12758822023661   -1.85409688597701   -1.58437713936324
N          -0.17556983028721   -0.87473741389132   -3.03769263269895
H           0.52768620992771   -1.06419157174849   -3.74050393735920
H           0.11624085704998   -0.04279603785970   -2.52650815548863
H          -1.03862839162299   -0.65344191246933   -3.51813928324905
