    26
        -50.47150110  Gyration_radius:  2.42634083709 Dipole_moment: 3.421
 S          -0.44770436619932   -1.50250635159073   -1.04087466763966
O          -1.08683172765187   -1.33618723764492    0.25614720701945
O          -1.29700738749939   -1.01821975968791   -2.11792621168785
O           0.88703197841431   -0.93944435734758   -1.08087087930323
O          -0.26957254493013   -3.05584931870023   -1.26365815626660
H          -1.16917053717956   -3.36495637825834   -1.27197554598862
O           0.45172885423941    1.70592947657214    1.77413674082722
H           0.75460066346304    2.19647421129396    2.53869242819570
O           1.10231240206453    1.72556390450831   -0.88410228303083
H           1.21604432758015    0.76364160076708   -1.01331724688876
H           0.99963448143017    1.84146283259169    0.07949242279829
O           2.71266066681640   -1.78603437819110    0.66517969613740
H           3.54125835774200   -1.37590156306869    0.41222423672215
H           2.07986299696172   -1.58983193037689   -0.05423639709010
O           0.68653114878073   -0.83603001293062    2.21921557298866
H           0.59447988696733    0.73542098473165    1.99009175827705
H          -0.00517006637863   -1.13865518234373    1.60093438626718
H           1.51356981380963   -1.21634110903069    1.87122665279081
O          -2.08258223285230    1.08647952017059    0.90728412480379
H          -1.90157484318451    0.13201964794461    0.80317036560141
H          -1.29310760164014    1.43541599689828    1.36159594455380
H          -1.85151358749253    1.49705879258053   -0.60293944637710
N          -1.41583408082867    1.53520465256841   -1.57768491665474
H          -1.43701124728703    0.54204796672882   -1.94049110588712
H          -0.38932224341673    1.78592032576114   -1.43152614210154
H          -1.89331314173745    2.17731765605219   -2.19978854806957
