    26
        -50.46133272  Gyration_radius:  2.45172842673 Dipole_moment: 4.969
 S          -1.83147835031020    0.79076296339341   -0.70279812470793
O          -1.30243954621837   -0.15199669577893   -1.66699933685789
O          -1.59037178837013    0.39469792821670    0.66843779608707
O          -1.36442562990642    2.15094477465130   -0.97238886981917
O          -3.40066620905466    0.81287584631447   -0.89456253442975
H          -3.49925247245514    0.99984847651752   -1.82294122815369
O           1.69748290589860   -0.92704792631250    1.53473853531982
H           2.41443557576612   -1.56224370162701    1.54809063030893
O           0.63342609839357   -2.85504845667380   -1.36002332250845
H           0.09072774156515   -2.75320696859778   -0.54474600613633
H           0.00445764412991   -2.77872710087258   -2.08027547488292
O          -0.75025179315239   -2.18337210988521    0.86467523809576
H          -0.00842851631339   -1.95062322839389    1.43937592963579
H          -1.21586481604502   -1.34203515622342    0.71502973350234
O           1.24662784506789   -0.30113679881932   -1.05947557337630
H           1.54167290389133   -0.70158031872781    0.58881030155134
H           1.36147663578656   -1.24846283665368   -1.29968691245859
H           0.29974026179962   -0.16865625658204   -1.29945734224897
O           0.32890518615290    1.31090251574232    2.28696906188696
H           0.85626837899452    0.49876309970442    2.35704042832552
H           0.86090874834784    1.95882620789555    0.98749004498229
H          -0.52355793751758    1.01918215663704    1.90343359044130
N           1.03714378174634    2.21348610053135   -0.04670422708672
H           1.47113772248728    1.40286400927687   -0.51155493224781
H           1.58773035449657    3.05727623041964   -0.15985433133421
H           0.05459528481446    2.31370724583625   -0.47262306389615
