    26
        -50.46133376  Gyration_radius:  2.45485772265 Dipole_moment: 4.884
 S           0.43714927031050    2.05088923095925    0.33439641217514
O           1.45539595038745    1.45998100125280   -0.50941966567276
O          -0.88912723561398    1.53626041344890    0.06686016866603
O           0.79119690738971    1.95028620084428    1.75072743953203
O           0.39648114329205    3.59468821905476   -0.00438998683609
H           1.30052098709778    3.86455417487174    0.12398971891466
O          -1.28017537196909   -2.05602279061137   -0.44583355152770
H          -1.19839682278532   -2.88653319962932   -0.91627804964678
O           1.36213286021026   -1.11573269929899   -2.71257354054968
H           0.48944470801258   -0.65992129116483   -2.68444186847863
H           1.99843237546476   -0.41499779449665   -2.86704426785315
O          -1.00074858170916    0.11106988346792   -2.24471100952930
H          -1.46248581799882   -0.62649961565001   -1.82322834259100
H          -0.90336087034680    0.77299390248806   -1.53795131265089
O           1.23259397670793   -1.11741307560074   -0.07008772257763
H           1.33491800978294   -0.14162050012506   -0.16663301768514
H          -0.36398823746782   -1.72237842868948   -0.30871369577328
H           1.46223400180786   -1.41570864859802   -0.97910032461071
O          -2.18666285979822   -0.33398135509464    1.46729332048083
H          -2.19321769411087   -1.03668473441468    0.79750980738054
H          -0.81042777666482   -0.51886224854566    2.14896866955940
H          -1.93858252101759    0.47506328648598    0.97439511483775
N           0.24304941658575   -0.48493773875121    2.38191722289159
H           0.51773620575610    0.54558311898248    2.24378239218909
H           0.75233094692309   -1.01844494202427    1.66222715539676
H           0.45355703978652   -0.81163035913815    3.31833893396822
