    26
        -50.47150109  Gyration_radius:  2.42630731078 Dipole_moment: 3.422
 S           1.06326031270243   -1.50513677779049    0.38157753671788
O           1.56061849713756   -0.18806868190485    0.75089044833871
O           0.43841472855396   -2.17364114789080    1.51233457222636
O           0.21282374968770   -1.47104782219418   -0.79137923530211
O           2.32209558111927   -2.36976019934069   -0.02076506465819
H           2.81879341480718   -2.39558662221723    0.79012827036714
O          -0.97037951238492    2.25072721846571   -0.50389804267775
H          -1.19687373869229    3.10679717694279   -0.86825573646900
O           1.16874440993786   -0.46734844584370   -3.06670719809685
H           0.88150938976291   -0.95857063503441   -2.27131072883131
H           0.50060767225717   -0.62641555927230   -3.73543944544025
O          -2.14703032248562   -0.21956645287045   -0.56351987402574
H          -1.36466467986769   -0.74713005692290   -0.81750461575264
H          -1.86369513291108    0.71053369483850   -0.64781065975794
O           1.40802427783499    1.57441240312650   -1.27888464009512
H          -0.05830420486733    2.02751841292832   -0.86057878957874
H           1.61893812890244    0.97580508068826   -0.53763158649719
H           1.41108883496618    1.00233448653835   -2.06787043893447
O          -0.11152484071327    1.52049467219864    2.00341415932958
H           0.65670039226732    1.01031303683820    1.68062027668303
H          -0.44921343428459    1.97862817859044    1.21125237061079
H          -1.10227365722482    0.29909143363266    2.17432484348440
N          -1.61036697536278   -0.61794812694597    1.96865964121175
H          -2.03497387724291   -0.50740050757797    0.99635165219720
H          -2.29815446816815   -0.85617452904084    2.67400159224146
H          -0.85416453573779   -1.35286022992637    1.88800069269466
