    26
        -50.45942962  Gyration_radius:  2.42424324878 Dipole_moment: 1.897
 S          -0.55129453050431    1.74113413867168    0.48891959419240
O           0.33264412095178    2.74327078595207   -0.09674081309848
O          -1.29055669049011    1.02568980952336   -0.54168095793917
O           0.12586439886434    0.84754387451329    1.40132179097263
O          -1.60881254889624    2.54023277075117    1.34409294946997
H          -1.84705381322932    3.23917895468502    0.74457317502618
O           0.65442562096377   -2.02382518219693   -1.26233412012203
H           0.74862428915110   -2.94290167337088   -1.51318934937584
O           0.17249942870682    0.26988998306685   -2.62662164616384
H           0.34823119142516   -0.65408493055465   -2.35731483508591
H          -0.52287852296830    0.58225724359146   -2.00744611519437
O           2.01524342054478    1.50542797880714   -1.47884272642534
H           1.32133862686702    1.02829380452669   -2.12170180603597
H           1.41812763955456    2.14657666701270   -0.93519701391366
O           2.16965202277777   -0.33519495690370    0.20662424732933
H           1.73231008549801   -1.07471976274676   -0.26435171664652
H           2.25886942931282    0.74466474313964   -0.78417353913594
H           1.48826495993512    0.03737282841844    0.80761757549476
O          -1.59888664061545   -1.63238683441165   -0.08614930957197
H          -0.23789540692829   -1.94504970009489   -0.79432479550199
H          -1.48523757587451   -1.72283647968752    0.88813837651082
H          -1.66136735244252   -0.67353306811716   -0.24544294212509
N          -1.08432805115597   -1.48430728046903    2.57825356669091
H          -0.62393945156431   -0.59752400124066    2.37769441735835
H          -0.42127476441869   -2.07092112342224    3.06907625821297
H          -1.85256988545200   -1.29424860946000    3.20919970507686
