    26
        -50.47150111  Gyration_radius:  2.42631126495 Dipole_moment: 3.422
 S           0.15816372253308    1.85364074918245   -0.28091974853990
O          -1.15354631161292    2.31871445352586   -0.70401790681151
O           0.13010345117316    1.35523393868743    1.08624357270417
O           0.74478742488428    0.90635436000462   -1.20757931777174
O           1.11204989399152    3.11234783933383   -0.28618342758651
H           0.66081799684054    3.71215485965645    0.29817161341904
O           0.01748298750153   -2.36518351507908    0.81671068386151
H           0.24516378283307   -3.23410516578103    1.14844382685830
O          -0.60048790941499   -1.36872345088874   -1.65636814557289
H          -0.00390962853192   -0.59477396274078   -1.65425987517729
H          -0.35606926475674   -1.87923261543908   -0.86133807030353
O           3.22299754960265    0.02752129428228   -0.77769267150084
H           3.46088205374493   -0.49934248694081   -1.54233374229517
H           2.37575615392188    0.46308453833427   -0.99887297247658
O           1.86173557700947   -0.66892323673703    1.47734473831786
H           0.77722242061896   -1.76020692185714    1.07308132671898
H           2.52732696257667   -0.52721654997315    0.77975986714198
H           1.30867932045210    0.13488497414719    1.45947003798423
O          -1.73926618740728   -0.47173706684895    1.75811482182640
H          -1.21053038520172   -1.27212846714371    1.58132315408345
H          -1.09006241813071    0.25820963158087    1.73820859282325
H          -2.42336357070907   -0.16559528974279    0.36505900924618
N          -2.53000194255145    0.09826749935388   -0.66473073645461
H          -3.49264570348527    0.07662202781950   -0.98122119669470
H          -1.90032251204790   -0.57089866734980   -1.20663272541767
H          -2.10296348382259    1.06103122060864   -0.75978070837957
