    26
        -50.45942924  Gyration_radius:  2.42437115096 Dipole_moment: 1.891
 S           1.53047856520725    1.09454691747321   -0.20460609131858
O           1.81895175782698    1.80803522123100    1.03490327995073
O           1.70177124621357   -0.34164811697201   -0.03603919833386
O           0.24422391611234    1.43250157357800   -0.77101332343350
O           2.61832339991901    1.57010548547299   -1.24311734449228
H           3.41106291262572    1.52531078368191   -0.71938474805832
O          -1.63533145512457   -1.68378122088311    0.77827915535678
H          -2.31560837298822   -2.35727035116376    0.76800108962801
O           0.64833785121737   -1.32571324686101    2.19589027427104
H           1.19412599416373   -1.11061192956232    1.40840157843172
H          -0.20006936149534   -1.64749052288882    1.82997835667716
O           0.11951417522364    1.05961725782043    2.71561942001499
H           0.85944844691196    1.48230671643393    2.13515121210570
H           0.35488061290693    0.02726716547701    2.67879142104094
O          -1.68775364108492    1.01047064536819    0.98812370438288
H          -1.10263973503322    1.25904263491874    0.23978408830212
H          -1.84724939549825    0.04849414433141    0.89264812323274
H          -0.74331366153978    1.12888448507131    2.10634470514821
O          -0.14566805122035   -1.86936728279955   -1.30959715701337
H           0.63181484083164   -1.40254091466694   -0.95423561565568
H          -1.10150564541791   -1.80338558122485   -0.07162073881861
H          -0.49545426951044   -1.28109125550865   -2.01818630474275
N          -0.94714100853192    0.08499629015663   -3.01905098541551
H          -0.45268191769570    0.19426303974130   -3.89535859970383
H          -0.54712689556134    0.74639473750727   -2.35495513587336
H          -1.91139030843807    0.35066332425853   -3.17475118564765
