    26
        -50.46116166  Gyration_radius:  2.44773967858 Dipole_moment: 5.247
 S           0.69485548013521    0.36670799163632    1.97158483289398
O           0.54630429802390    1.82293043091360    1.96270696678325
O          -0.59143471930834   -0.28096473745595    1.74726530657483
O           1.71755546737569   -0.09721603642290    1.07074151378507
O           1.15060965588043   -0.01919630556665    3.43328694228275
H           0.46017738623196    0.35122440914993    3.97410200946163
O          -1.38967475899755   -0.76150307596507   -1.90466495883329
H          -1.36547643743357   -1.17141030836769   -2.77001582477462
O           1.99938114089167   -2.13261612677544   -1.41458925512819
H           2.69232786774478   -1.98304749104377   -0.76767171848610
H           1.21573466845204   -2.38559631009360   -0.87798021300883
O          -0.25194053294516   -2.41580052344594    0.08244871461800
H          -0.89506152438520   -2.09756843209630   -0.56641968630435
H          -0.26631966328806   -1.75182903517023    0.79253842669898
O           1.02302902203011    0.32550061522598   -1.42133635745292
H           1.28097937518703    0.23628234138989   -0.47317034687792
H           1.48213857337024   -0.45733074643709   -1.79742107012019
H          -0.50178607695831   -0.35587589002886   -1.76023256302798
O          -2.42883341654371    0.74191374244919    0.11698044022352
H          -1.38124196935252    1.81073115713740   -0.24362751587579
H          -2.37748860918327    0.11889847651471   -0.62595464676305
H          -1.91333918883166    0.31739059854820    0.83723902546003
N          -0.45472203097648    2.35914226135294   -0.34902327582340
H           0.14192451446323    1.86397998651107   -1.02610536272109
H           0.00781362267526    2.26596208928704    0.61741847036054
H          -0.59551215423389    3.32929088875385   -0.60809983400530
