    26
        -50.45942973  Gyration_radius:  2.42424923189 Dipole_moment: 1.898
 S           0.32182295762400   -1.85440916908295   -0.16655228381198
O           1.75244558717979   -2.13517269232646   -0.11115196249593
O          -0.16023058405831   -1.32873934051201    1.10304057975843
O          -0.05203789533568   -1.01964180308653   -1.28581557894733
O          -0.38680894846685   -3.24628740678838   -0.38751772244756
H           0.06684750405197   -3.79196889146013    0.24587620303948
O          -0.06725209480890    2.34451518398717    0.78737408485445
H          -0.38338280301196    3.23015012252073    0.96684977842936
O           1.39202881481762    0.53567689230543    2.18556321086057
H           0.78797491517263   -0.21444421321494    1.99304240601617
H           0.91064370185669    1.32852431843850    1.87460571247744
O           2.90697993468894    0.05663429925226    0.25803313227533
H           2.42027087657139    0.30178533496445    1.16642811687897
H           2.58258634905485   -0.90558440171713    0.07871761930873
O          -2.00231203578382    0.65353389993281    0.88976707545379
H          -1.46650981526220   -0.14399519930237    1.04946495270175
H          -0.87525380149528    1.73865500753481    0.82651885295305
H          -2.38416813206328    0.52904938394574   -0.00969378258566
O           1.31489750789785    1.24639284502628   -1.25930132493373
H           0.80124043358395    1.78858791549694   -0.62517662096975
H           2.38088249494172    0.63300448521192   -0.45724470861425
H           0.76102923901700    0.45683544484522   -1.44376906080712
N          -2.68715472785998    0.07187792835446   -1.67502417368832
H          -3.41292353669493   -0.61520024744307   -1.83505578431101
H          -1.78996998340148   -0.40692917749525   -1.74116035305931
H          -2.73164594828684    0.74714948052195   -2.42781836833278
