    26
        -50.46116160  Gyration_radius:  2.44788527149 Dipole_moment: 5.238
 S          -0.13327139336251    2.10613039501055   -0.22982591654802
O          -1.59333371216663    2.20658310398684   -0.25647696949292
O           0.31717201782493    1.52377030660452    1.02810861085300
O           0.40245555722497    1.42891309138710   -1.38177626229745
O           0.40976075778138    3.58845281292569   -0.26566391543409
H          -0.01133908815820    3.98560337231257    0.49023846269065
O           0.43301688449384   -2.24161940368752    0.95965173672775
H           0.78183212186716   -3.11367430769747    0.77150398413739
O           2.28232220371369   -1.11592658340494   -2.02365935349478
H           2.27613907702870   -0.31480685671716   -2.55214994923455
H           2.46243856773533   -0.80329782058467   -1.10940295398855
O           2.35929588710772   -0.21841733878227    0.54107061783818
H           1.91332897303587   -0.96481192112255    0.96527173336671
H           1.74956285458289    0.53078719806912    0.65169175885224
O          -1.05519341464283   -0.38060777875073    2.28189866406615
H          -0.51640599372839    0.39438493479712    2.01040700224090
H          -1.99427481670226   -0.37890990788077    1.06181370339040
H          -0.48335125303203   -1.14894307495125    2.12248999395692
O          -0.28042703641409   -1.10186030870204   -1.37030837194874
H          -0.09243655494713   -0.13330560255747   -1.37716969635049
H           0.53020336033627   -1.43637281569772   -1.81317966893432
H           0.16281474957208   -1.85349934919755    0.09357263922924
N          -2.41754286080938   -0.21008096549471    0.08072437145775
H          -2.19649801478418    0.82358099185842   -0.11759797162576
H          -3.41318177076390   -0.39773925522325    0.04085251686748
H          -1.89308709281204   -0.77433290650392   -0.60208476633258
