    26
        -50.46116152  Gyration_radius:  2.44782316386 Dipole_moment: 5.244
 S          -1.83218830115725    0.48999591937455   -0.95320268285202
O          -1.78238272616845   -0.54432849593806    0.07251732199004
O          -2.02077060086586    1.80831035188675   -0.34564991766641
O          -0.70617650329934    0.44209406425958   -1.84892696864229
O          -3.12617742227291    0.21469411527957   -1.81529217728179
H          -3.82743368977257    0.30454576595708   -1.17762732240127
O           1.68007519926853   -1.09863194763778    1.45091980758214
H           2.57613243196202   -1.43543708044700    1.48533428609333
O           0.15260923323426   -2.35956214349082   -0.56301667863699
H          -0.61938537228507   -1.77287162628101   -0.49137727723014
H           0.62554895411181   -2.24900479297159    0.27364732743297
O           2.00941315239527   -1.26217661308805   -2.21747503039541
H           1.49492854368806   -0.91788721880357   -2.95091831831333
H           1.36564809365602   -1.78977066780211   -1.69471065705569
O           1.54124171834812    0.71808988201271   -0.52820795168249
H           2.08633670730110    0.15473513076757   -1.12037972764123
H           0.67665380093583    0.67857265912631   -1.00192525466442
H           1.66049707978098   -0.42342184323453    0.73155128787820
O          -0.66308274717792   -0.13153801818643    2.45121465749225
H          -1.21747387009068   -0.38870880145874    1.68233727375679
H           0.14350281677433   -0.66524821193269    2.36565879150328
H          -0.23614552557967    1.24461499644194    1.90863108416536
N          -0.02064062173147    2.07863058237084    1.25429972909365
H           0.81032506662609    1.84623745498654    0.69290593776935
H           0.09274275460615    2.95443292023091    1.75253048396117
H          -0.86379817231133    2.10363361851936    0.58716198574995
