    26
        -50.46116248  Gyration_radius:  2.44669540997 Dipole_moment: 5.275
 S          -1.80585587922127    1.10509838227090    0.11417632952307
O          -1.76091785273577   -0.16395141784076   -0.60136738581375
O          -2.07859920984975    0.88557682130680    1.53533371599717
O          -0.63712624259570    1.91484839035622   -0.11228584740363
O          -3.04397843936291    1.90370574463631   -0.45365361156210
H          -3.77629000421759    1.33082372718576   -0.24885437155935
O           1.66181683229272   -1.74750897660587   -0.57588056402792
H           2.56920026153913   -1.90417229076029   -0.83970665273227
O           0.27932092741539   -0.10639841396708   -2.41289985593674
H           0.71243706410406   -0.89306572386893   -2.05302889471152
H          -0.52047854944365    0.00651597971540   -1.87185205657023
O           2.14369358956471    1.74150739407942   -1.70160243346058
H           1.50878212126373    1.10934417347480   -2.10521940931681
H           1.63360586567738    2.54579796336278   -1.58174138849700
O          -0.76287061497526   -2.37109685955543    0.50000444422785
H          -1.27192506407245   -1.68515139696163    0.01516811258356
H           0.06861057339810   -2.45896749540503    0.00630145334780
H          -0.37245735818749   -1.48916659160818    1.69908772084596
O           1.53630841882975    0.65201043361869    0.63072131465049
H           2.12962446027046    1.05575502424952   -0.03995456733144
H           0.69473889316761    1.12139532263307    0.41846787478450
H           1.64761193395889   -0.87179634963256   -0.12089732391896
N          -0.16474486237144   -0.64016209186206    2.33692293256726
H          -0.97733765615465    0.03464096012520    2.13445012510740
H           0.70070290300349   -0.18983856055433    2.00892110598302
H          -0.11387211130830   -0.88574413838561    3.31938924320076
