    26
        -50.46116134  Gyration_radius:  2.448026802 Dipole_moment: 5.233
 S          -1.30462109285325   -1.43652861768631    0.86117798411514
O          -0.30486822222822   -0.75969109464414    1.67761529902331
O          -2.53540595731683   -0.64695819772179    0.79482125291966
O          -0.80634003551300   -1.80683646997799   -0.43776687204575
O          -1.68045750734522   -2.77225868892518    1.61477818362181
H          -2.04089021368356   -2.45584753465065    2.43719075995619
O           1.80567910454808    1.67104323283963   -0.28126635695575
H           2.50860013509766    1.96578730873498   -0.86137089994224
O           2.14615246428574   -1.01941826535346    0.50835428880890
H           1.28143270958915   -1.11130213146675    0.94329455827888
H           2.30123371737573   -0.06537905719291    0.46619833101624
O           1.91195356150880   -1.49891426161399   -2.15684740141181
H           2.12114922519341   -1.41398422496091   -1.20019027522342
H           1.33990827130816   -2.26779622932017   -2.20807648251307
O          -0.05193624576981    1.88902268327092    1.70069118948312
H          -1.11869625380487    1.90892933276174    0.59124273765805
H          -0.10906816285522    0.92790573808936    1.89495684382722
H           0.78046653741269    1.99478670493534    1.21216611696720
O           0.01866811756486    0.30378493490539   -1.75532604849760
H           1.15643841185206    1.18988137417504   -0.84766047874769
H           0.73481022169187   -0.14903977937813   -2.25255877191630
H          -0.35589070607790   -0.46184309853675   -1.25835509635721
N          -1.80195629736163    1.61512985824776   -0.19444666886259
H          -2.23500871296270    0.70189955630905    0.17311401764136
H          -1.25322253366731    1.38118725750051   -1.03334005637222
H          -2.50813054596566    2.31643966961937   -0.38839613446814
