    26
        -50.46116149  Gyration_radius:  2.44782488737 Dipole_moment: 5.242
 S          -1.11856197928042    1.45785953566237   -1.06256055794884
O          -1.59641500761721    0.08464927317043   -0.96128999066230
O          -1.56046283562541    2.24275366045236    0.09130907586822
O           0.30154203481637    1.53948593734700   -1.28448605212039
O          -1.82514276657609    2.09445959219343   -2.32300198263229
H          -2.74770590419546    2.05014755163267   -2.09226543002971
O           0.73149911219081   -2.15383428253420    0.97969490638321
H           1.48906520859640   -2.71787747918323    1.13939382149066
O           0.37121665148391   -1.62283186187737   -1.77100393883339
H          -0.32655762822368   -0.95522642912528   -1.65826658894212
H           0.37366286040479   -2.12046372692810   -0.94134855858250
O           2.81925836543883   -0.46284617309867   -1.54455056201971
H           1.99319906456075   -0.95500109383091   -1.74806046161794
H           2.73751476443903    0.35458160299669   -2.04066743434910
O           1.61370755476107    0.36701083413124    0.65840826264182
H           1.09320568123407    0.85287149085309   -0.02460923362442
H           1.07935725314721   -1.23537265124087    0.88383114399276
H           2.37022862947563    0.06142208633117    0.11124158686218
O          -1.78483789053513   -1.18338151299491    1.37052527236509
H          -1.12411261774547    0.05898505432014    1.99503999880304
H          -1.89356519664159   -0.81151074321228    0.46799749701028
H          -1.04921671376711   -1.81233460833350    1.29319851979917
N          -0.60121595752587    0.99624227334797    2.13077573357909
H          -1.00682794966460    1.62805192643594    1.36073878997049
H           0.39453211044730    0.84816157040156    1.91590084374613
H          -0.73336684344947    1.39399815316014    3.05405536883594
