    26
        -50.46061525  Gyration_radius:  2.54380465261 Dipole_moment: 5.983
 S          -0.02183126771986   -0.05815702347478   -0.49531548235471
O           0.60938629321036   -1.36292034967183   -0.65125915620113
O          -0.18709893026330    0.66780386825541   -1.72833333342983
O          -1.41198910625490   -0.35531880717082    0.12456235224084
O           0.72174020305313    0.73714080588489    0.50790456642629
O          -2.56674095389695    1.37188246075110   -2.68772064189853
H          -2.93649301819396    0.61869735061371   -3.15010151105310
H          -1.64576950674680    1.12730530219600   -2.45897438196801
O          -0.34476724411722    3.07602062987186   -0.23975716506452
H           0.15730847979246    2.32697526773938    0.12882780030882
H          -0.22882175809560    3.00539880080070   -1.19184806095369
O          -0.25796566063698   -2.39034057695822    1.59376853394974
H          -0.00403638220555   -2.17824812211996    0.66455266392583
H          -1.15126363669667   -2.04588810097977    1.68320318683727
O          -2.68008881194237    1.80900964563273   -0.03331826576946
H          -1.93957057539218    2.45658729500026    0.02283922949927
H          -2.91344146180565    1.78043385968952   -0.98320613828461
H          -1.96755335152870    0.51641830218982    0.10744489494114
O           1.60646445922112   -0.78125493621043    2.25044082509324
H           0.85542587798917   -1.46858015240928    2.22459765484298
H           2.37497236389796   -1.23674663243359    1.61392909412515
H           1.24483253525652   -0.03506023336855    1.60464050318154
N           3.09793589004405   -1.80454978468672    0.50577716203792
H           2.32998298954895   -1.74113292022472   -0.17286983591677
H           3.37793044725781   -2.77264137273888    0.59430930059688
H           3.88145209622460   -1.26283457618249    0.16590618489397
