    26
        -50.46116146  Gyration_radius:  2.4477729147 Dipole_moment: 5.246
 S           0.14191918859033    2.06248908072214    0.48080148655393
O           1.60143331311520    2.14349682838350    0.55872179291626
O          -0.27722973004396    1.63717597720269   -0.84879084005133
O          -0.43122848550265    1.26008473343161    1.52970810905037
O          -0.39050923210707    3.53603924730217    0.67683927202892
H           0.05811455459938    4.01572439852053   -0.01236465143855
O          -0.42241472899741   -2.10843588776092   -1.22924476918892
H          -0.78349157138465   -2.99256190909462   -1.15495829147734
O          -2.34612420256941   -1.32084167151592    1.81597839867000
H          -2.49851763558643   -0.90168488310883    0.94012145706786
H          -2.34738353482328   -0.58690021595781    2.43434700974826
O          -2.34490563667631   -0.12861972105896   -0.62677796383049
H          -1.89260114379966   -0.82439571789560   -1.12398067309703
H          -1.72689938492209    0.62195003497393   -0.63152947539455
O           0.23378380803807   -1.25874793264100    1.23748976727687
H          -0.17371516677365   -1.82813043162417   -0.31640445838487
H           0.05285171890229   -0.29584536864597    1.35367770864285
H          -0.59135786209666   -1.63440241626568    1.61588894346018
O           1.11533635781462   -0.12001929394580   -2.28195988649095
H           2.02000267100726   -0.27226429414818   -1.04555635190450
H           0.53383596793277   -0.89580079912361   -2.22976055883049
H           0.57475975445011    0.62306757439769   -1.93522311695208
N           2.41697148880683   -0.22493500526022   -0.04037117190068
H           3.40970941061970   -0.42648743641924    0.00383138442382
H           1.86954933160310   -0.86028375985358    0.55654849457447
H           2.19811073982023    0.78032888931836    0.27296839453155
