    26
        -50.46116129  Gyration_radius:  2.44795606723 Dipole_moment: 5.241
 S           0.38643931632743    1.26784093267000   -1.65830251261747
O          -0.65912972760482    2.25762673268231   -1.39390273776206
O           1.32111253383615    1.19954446083015   -0.54203093000552
O          -0.14164464309426   -0.02073016196129   -2.02342476082570
O           1.19843573580182    1.80823110351208   -2.90006506445687
H           1.47596906970258    2.67178540790817   -2.61089166979145
O           0.24397304562374   -1.20817377700798    2.14798928320267
H           0.12133823207647   -2.05287079882153    2.58278687253033
O           1.98228983825665   -1.40466756311414   -0.06976704830787
H           1.83141567307084   -0.50307777185327   -0.40101028251315
H           1.70045598575026   -1.37856052557325    0.85536608024456
O           0.06703876909179   -3.08323548472656   -1.02001019515552
H           0.85828314576293   -2.58751535613615   -0.71303507765126
H          -0.02730795792326   -2.83351262167005   -1.94181087249951
O          -1.38155745776911   -1.12280478850816    0.00618391890979
H          -0.37448521501250   -1.19479947546135    1.37917467389287
H          -0.96173930758336   -0.65498635425977   -0.75433070771469
H          -1.16806337601343   -2.05310479171273   -0.22644689749154
O           0.53915625151996    1.49598180285212    1.98432930922243
H           0.62644177555838    0.58465784063870    2.30773718652223
H           0.99150640632025    1.49785242102919    1.11255790565025
H          -0.89910592725793    1.54107754622645    1.43687073792891
N          -1.76523843076691    1.46589536566219    0.79314545607837
H          -2.56799602747671    1.97390954038467    1.14756370805132
H          -1.97646851621492    0.46920389489093    0.64592041672542
H          -1.42111920195832    1.86443244158562   -0.14459679216173
