    26
        -50.46116148  Gyration_radius:  2.44790286539 Dipole_moment: 5.237
 S          -0.14020833419300    0.83759962306649   -1.94550684816367
O          -1.24148949342320    0.05912486153783   -1.39282870053635
O          -0.25089540396706    2.24146882938110   -1.54591929689654
O           1.14885235606599    0.27050753501026   -1.64667141652035
O          -0.30792390600888    0.81345027860941   -3.51538786188765
H          -1.15019566608273    1.23825278265420   -3.64401403468070
O          -0.53057986677739   -1.26022549631477    2.06542883906725
H          -0.17118641926188   -1.84516238137941    2.73341345946183
O          -0.30131354627475   -2.35214796654171   -0.52947259572884
H          -0.58622502724214   -1.55349266874728   -1.00512583661970
H          -0.62920167271255   -2.23281042523695    0.37282296375691
O           2.36280200642081   -2.22886035713924   -0.00352175728734
H           2.74664688702449   -1.89274701240229   -0.81643937113259
H           1.42677323619268   -2.41803142176492   -0.23620615969029
O           1.50869818977074    0.08841755971019    0.94336728554173
H           1.36756800980151    0.22661235907813   -0.02333437740369
H           0.23319895587001   -0.76572675559104    1.68350909282892
H           2.06675105549577   -0.71972110050096    0.92077193180431
O          -2.26373765366613    0.56015714212044    1.01228553478512
H          -2.08356275488766    0.34254694289616    0.07159347553004
H          -1.93113002528229   -0.20294572233599    1.51206672646282
H          -1.14255838745020    1.60304342256804    1.17064978132235
N          -0.24192343830470    2.18542200264747    1.02905002983977
H           0.56680255456498    1.60293665043591    1.28654581113048
H          -0.25291467437113    3.06262047080170    1.53750509558761
H          -0.20304699130582    2.33971086742884   -0.03458179057496
