    26
        -50.47229267  Gyration_radius:  2.48068110219 Dipole_moment: 2.001
 S           1.51678512415303    1.18322258476912   -1.22217180033014
O           2.16411185010323   -0.11248516431358   -1.19423557912606
O           0.60340736012197    1.36213524244152   -2.33429443762708
O           0.88476368060171    1.49785844023182    0.05538981478924
O           2.66720695909844    2.25240067554802   -1.43509112963703
H           2.17895690114406    2.98005540775520   -1.80538059198112
O          -1.91906696674020   -0.26688129011528    1.92550736101932
H          -2.69911168686270   -0.12537423212515    2.46213390302555
O          -1.12160589241139   -2.12565506274370    0.05829283477647
H          -1.21346165022226   -1.58172652403698   -0.74678577385650
H          -1.53508327490321   -1.60480857922360    0.77035393273262
O          -1.28155657787258   -0.39151767985789   -2.05658207920323
H          -0.53510550933381    0.24567638837565   -2.19730169655820
H          -1.52998797827571   -0.70158366375016   -2.92879269361196
O           0.75122918412736    0.22798944077676    2.42511104512958
H           1.24299138065474   -1.01319485437741    1.55914975646476
H           0.87546991330572    0.87213215982399    1.70148736864506
H          -0.21095729147551    0.08013435390917    2.46402682467607
O          -1.77443592303437    1.46373757945493   -0.01681185227038
H          -0.80838377296242    1.62777572480345    0.00120189663978
H          -1.91601683589759    0.93862900319773   -0.81656360249783
H          -1.92720886123760    0.44293665633020    1.22024910295130
N           1.38550729272103   -1.68229850831342    0.74264063217979
H           1.77681923381375   -1.10079792699887   -0.05118445491747
H           0.42112351350236   -2.01711999952452    0.44661440767444
H           2.00360982787826   -2.45124018203204    0.97303682091079
