    26
        -50.45064695  Gyration_radius:  2.41492037123 Dipole_moment: 1.315
 S           1.71080923142480    1.11056891823760    0.13191911510479
O           2.76853855758993    0.79503635752839   -0.80260669591886
O           0.46214293184433    1.50306329138275   -0.49758718482297
O           1.49712033291462    0.07824860911802    1.13383402016300
O           2.20086639231638    2.40487083274844    0.92036737936670
H           3.14099584198506    2.26343857400224    0.96626574903010
O          -1.57071294665472   -2.03305652644265   -0.13409430576042
H          -1.88561703395985   -2.77035687135322   -0.65945652141363
O           1.13993828346467   -0.70767924359964   -2.17534064164454
H           1.30049209715614   -0.61463806854195   -3.11586903599073
H           1.80161169862713   -0.13668907032090   -1.72576521159350
O          -2.20505795085668    1.82555473701195    0.37332793935848
H          -1.90734683322585    1.21681907457055    1.13844687413245
H          -1.43804877215667    2.38909305084667    0.21128620356275
O          -1.54173904480944    0.20183567345910   -1.36394153164908
H          -0.59055259441272    0.52684558917343   -1.28214653684479
H          -1.57656012347747   -0.71613840407142   -0.89935565082673
H          -2.00223747791317    0.90731395996083   -0.67022757974274
O           0.98344012944825   -2.28152640428762    0.02791362247577
H           1.18123780799194   -2.00941903001013   -0.88275145792674
H           1.26005821629382   -1.51102136197202    0.56680129345492
H          -0.58076252493433   -2.18908615654131    0.00277038377225
N          -1.18702380959891    0.13240886680368    2.05698743830998
H          -1.52494825888480   -0.79582077698882    1.82919148272314
H          -1.23675263471613    0.24331232210923    3.06120062267665
H          -0.19989151547020    0.16702206716056    1.78883022001832
