    26
        -50.46061517  Gyration_radius:  2.54406908502 Dipole_moment: 5.984
 S          -0.39431446773667   -0.28960419809794   -0.09509606376448
O          -0.00608398093719    1.13766870190909   -0.15848987313352
O          -1.79712296909924   -0.44340493318685    0.19304074044487
O           0.04380978346893   -0.97052963993522   -1.30731147253480
O           0.44432104316708   -0.92119226995767    1.04631931112879
O           2.58540758310272   -1.07783064090220   -0.69356463974893
H           2.59447753541697   -1.24818610570201    0.25274060682514
H           1.65077364350656   -1.23939912912421   -0.96414559460958
O          -2.70622096918102   -1.61883965655962    2.40018552678104
H          -2.49127847087331   -1.21191593168734    1.53504781329699
H          -2.69329217898818   -2.56652218718362    2.26068290837494
O          -1.68568651727938    1.90386951576936    1.78042531060783
H          -1.05472776364697    1.80220336201369    1.04525024941259
H          -2.48486175105710    1.45973999087867    1.48209847471055
O          -0.61869344616484   -0.10286552582283    3.17214350901985
H          -1.39748285316184   -0.69494241575673    3.19219770312809
H           0.06129154794690   -0.59275358579799    1.94838907326126
H          -0.97339582148195    0.76667744968538    2.87388950170268
O           2.14398104209773    1.34050017876593   -1.36684302908881
H           2.54702688596241    0.45214306397548   -1.07436105216580
H           1.73212001650465    1.10686144913713   -2.35619333389547
H           1.26025834298158    1.37884712966824   -0.79909101111032
N           0.97402851760581    0.54491886895994   -3.44390011073974
H           0.44602834524580   -0.12823271376048   -2.87614141695133
H           1.49608553041032    0.04091816141576   -4.14877679459639
H           0.32355138218545    1.17187105129837   -3.89849631635371
