    26
        -50.45064668  Gyration_radius:  2.41421702363 Dipole_moment: 1.331
 S          -2.01904572543374    0.27858204079698    0.14403900189706
O          -1.28632470979741   -0.22055058013782   -1.00617801578593
O          -2.77012335872264   -0.73584161602113    0.85021874925980
O          -1.16523482288997    1.07459103097884    1.01167510576866
O          -3.10193402510069    1.27973876048813   -0.45831138992709
H          -3.77474411650558    1.27061825944276    0.21492239676484
O           2.44429439281832   -0.45428670348144    0.66836383234185
H           3.08690029494978   -1.09472894256200    0.97763590485921
O          -0.69282843497867   -2.30961610414496    0.84484581864541
H          -1.52317980579720   -1.78367769401287    0.85865063059736
H          -0.95515266957642   -3.22179807749395    0.71043376932657
O           0.75132649540927    0.78570186857668   -2.66913675963520
H          -0.21054266007262    0.70263060715490   -2.68886475307789
H           0.92843534592150    1.41306271525672   -1.88177594144424
O           0.52972579816006   -0.44119841647841    2.38466417690022
H          -0.09716131714675    0.22432809982791    2.03160925020537
H           0.13707420037327   -1.28984983893777    2.12342426188965
H           1.74312196634408   -0.38754673828510    1.39426708004512
O           1.02338430731260   -1.24745503394722   -1.29673485574122
H           0.07178434786646   -1.14507778756556   -0.98119399871140
H           1.03844202368630   -0.41564979487739   -2.00530044668024
H           1.62283953483432   -0.96062246004294   -0.51076022300257
N           1.05197222287616    2.08684494247032   -0.44369347732349
H           0.21091530431422    1.79482657185087    0.06121895907170
H           1.10936101466566    3.09521796659419   -0.38813804182721
H           1.84669436648995    1.70175691453638    0.05411893557944
