    26
        -50.45064774  Gyration_radius:  2.41646197825 Dipole_moment: 1.293
 S          -0.76970982128655   -0.71096418512314   -1.75525787902414
O           0.06177315673055   -1.43615921955862   -0.81022426165448
O          -2.15861161639184   -1.11367330677492   -1.74900624173906
O          -0.58293210800496    0.72578162090324   -1.63094364020449
O          -0.20825664197878   -1.11315074651259   -3.19054924468931
H          -0.96890749012453   -0.97695357821710   -3.74620748044711
O           0.25397802365109    1.37783499772596    2.15455026956754
H          -0.07388911490191    1.55019315132966    3.03862096039454
O           2.67505816777697   -1.08697267403863    0.24935816557331
H           2.26742514478822   -1.61110729561675   -0.45095621824757
H           2.53580390210519   -0.12042918349720   -0.05033688906767
O          -2.21748355412169   -0.95574420135648    0.85344806291486
H          -2.26217896118377   -1.06391404413120   -0.12215567588684
H          -2.74016719995878   -1.66763949835727    1.22622635518609
O          -1.73564604033267    1.69539182398509    0.55736121132115
H          -2.20123787869635    0.87705840963701    0.79416046810592
H          -0.50820670337916    1.59458681496023    1.52574287273952
H          -1.35865706266137    1.50162328959428   -0.32624175341679
O           0.63035510513934   -1.09070955217292    1.63625341978825
H           0.08858631956381   -1.26505284550670    0.80155094421525
H           1.61841801022404   -1.13211224392739    1.18373944899599
H           0.47308865367524   -0.10386895786963    1.88528831059988
N           1.93619152335394    1.30111163588689   -0.45472628391271
H           1.68343207602923    1.82116596212426    0.37797502466106
H           1.06765809251383    1.09646102164472   -0.95595534010330
H           2.49411600746949    1.90724280486246   -1.04171460567131
