    26
        -50.45064711  Gyration_radius:  2.41575684353 Dipole_moment: 1.302
 S          -1.98768015961513    0.30717396388022   -0.36616762682313
O          -1.40985865033565   -0.43670291606995    0.73978753002865
O          -2.53417869165644    1.59240662357250    0.00938676190422
O          -1.07194806485794    0.37452964416099   -1.49386549076922
O          -3.22910212411021   -0.56664023930159   -0.84822786114949
H          -3.79319205546851    0.09258060461282   -1.23971572248502
O           2.54505076184754    0.36821276491081    0.04381354041932
H           3.27609812703199    0.87676511956187    0.39837147314419
O          -0.35635535066855    2.15532987495617    1.32858871663081
H          -0.56161397019625    2.61370048778752    2.14519528727969
H          -1.21506763971036    2.00265839731067    0.87590382028412
O           0.26145446634437   -2.71154091066890    0.97139729158407
H           0.50467438869441   -2.48496807681210    0.00509012098535
H          -0.68331629826486   -2.52118899937345    1.02566926354027
O           0.89661737571382   -0.47335842814754    1.79932623660744
H           1.58791388351802   -0.12304529026536    1.12167430877521
H          -0.00171212155112   -0.12662041650252    1.49639698227540
H           0.74164063315415   -1.52383910631970    1.55450466419037
O           0.93973251118637    2.05221524642108   -1.05117402582659
H           0.58162794381915    2.41944782742489   -0.22702640824352
H           1.96737593004699    1.02501358873441   -0.46417208455313
H           0.21162856142646    1.49173325302590   -1.39199011497067
N           0.79492841521720   -1.76126139019699   -1.38496409657443
H           0.07070709699667   -1.04324372905631   -1.47146135195025
H           0.77766630550674   -2.31837403506615   -2.22908570914828
H           1.68690870594440   -1.28098384855384   -1.34725553518459
