    26
        -50.47229269  Gyration_radius:  2.48061328618 Dipole_moment: 1.999
 S          -0.73869435519820    1.95275746254490   -0.91369166505872
O           0.06643968182322    1.79349619260208   -2.10929407654297
O          -1.96590219523471    1.18291165536110   -0.92358891014499
O           0.03727599796198    1.71450774550811    0.29941764323747
O          -1.16847563970263    3.47797687540722   -0.88560957673447
H          -0.39479597115523    3.89600199056978   -1.24829394754566
O           1.60326712024117   -1.48205294212319    1.64186852172108
H           2.37160051453258   -1.83776040097509    2.08864321685963
O          -0.15800957207674   -2.38384102831762   -0.27181727608101
H           0.50802675603844   -2.25528690661053    0.42756577326772
H           0.15780718799418   -1.85641173695875   -1.02982955325754
O           0.76143575606929   -0.69832773100097   -2.22583179428818
H           0.45437349541828    0.24428123298661   -2.21514606619765
H           0.75640178075891   -0.96558126190422   -3.14622213365590
O           2.27391062586757    0.33167725693597   -0.10444292631082
H           2.07213965537983   -0.07236324773164   -0.95964752021123
H           1.54037977148995    0.96355545520274    0.04770646997471
H           1.94100313739746   -0.78588085035712    1.00740830665239
O          -0.37695061869350    0.23569721337032    2.51008318088442
H          -0.18686337305062    0.94716751794383    1.86847126791018
H          -1.49600857907865   -0.44089267845582    1.60310187139016
H           0.36524326257600   -0.38842987171900    2.41650191295681
N          -2.01539483984339   -0.81890277193938    0.75340068456514
H          -2.08876500691312   -0.01368419128480    0.06950955460517
H          -2.93042314223438   -1.18516704091224    0.98789027627990
H          -1.38902146038957   -1.55544795813878    0.31184676573105
