    26
        -50.45064678  Gyration_radius:  2.41426545055 Dipole_moment: 1.330
 S           0.81349469454768    1.36430097360586   -1.28523075718096
O           1.36220039691192    0.06856704828953   -0.92569625529332
O           0.25827974402058    1.41992802917227   -2.61954446658904
O          -0.09279645951931    1.85870357721600   -0.26076494287684
O           2.06197902706416    2.35366938149400   -1.29308805096980
H           1.76796195774688    3.03808082199096   -1.88560430209040
O          -1.74463550497748   -1.32752813691893    1.35008234264113
H          -2.45581269841752   -1.96991916945695    1.33205118017658
O          -1.04250372602151   -0.79806469404961   -2.19237138726535
H          -0.56074165807530    0.02358855307120   -2.43506125781424
H          -1.04597090622600   -1.34865720090827   -2.97715821105992
O           2.19212932495666   -1.15338524394400    1.47273550866751
H           1.60117967349549   -0.44209645944307    1.90813821798633
H           2.59910590615829   -0.69370509487922    0.72738618022492
O          -2.40551326975277    0.55236986729870   -0.27497772212240
H          -2.23631914774292    0.06022325888518   -1.09450018481585
H          -2.05460337205226   -0.55001358218388    0.78228706946445
H          -1.65598774213597    1.18165264690089   -0.22189691128560
O           0.35343680087100   -2.03716149597429    0.08355793278685
H          -0.50707504063096   -1.79111507849650    0.59184240670790
H           0.51587736229639   -1.29431865813220   -0.57812560198732
H           1.17839353676518   -1.81583510162292    0.76482871670302
N           0.48256864030917    0.64289920200563    2.23918296923937
H           0.67565497747258    1.32985486197458    2.95612202331025
H          -0.38949297867585    0.18304657886387    2.47527831738859
H           0.32919045160248    1.14491510526321    1.36052717605773
