    26
        -50.45064826  Gyration_radius:  2.41782172992 Dipole_moment: 1.275
 S          -0.60823700509036    0.89924907749117   -1.73283573138722
O           0.05634069550023    2.12646675196001   -2.11117430670990
O           0.28068638727333   -0.24392969211654   -1.61253968821945
O          -1.45442362708405    1.03663568096438   -0.55847753377169
O          -1.57749836073191    0.54112696692025   -2.94490832603472
H          -1.82519915204144    1.40413333217414   -3.26093633193755
O           0.64621889796269   -0.32028884789966    2.46391489246590
H           1.28533304264658   -0.13521247368692    3.15393366736489
O           1.86656002655314    1.73279001911125   -0.27353808063667
H           2.73694427652733    1.96874916480590   -0.59884087704748
H           1.23771477926982    1.93498035753548   -1.00056447641585
O           0.05544373653662   -2.86425865202489   -0.49735309656514
H          -0.01079587019336   -2.47754169081376   -1.37871841656284
H          -0.71736541803603   -2.44212709932377    0.01935596306764
O           1.67223901646586   -1.16727834966452    0.28893241266449
H           1.29332418764441   -0.82846372216036    1.18503700329030
H           1.08037727710120   -2.03615735474739    0.02230174181097
H           1.32524491368659   -0.53986833217777   -0.42523902124135
O          -0.12649518895325    1.95583044678001    1.55085966824395
H           0.68924576963819    2.16650881290576    1.06895369800645
H          -0.75980351867500    1.71599869903881    0.84248776133143
H           0.27950927798889    0.57680283725343    2.17393321805831
N          -1.70965166008970   -1.45227450739104    0.78359285815651
H          -1.35050679656879   -1.24639524734214    1.70900169201616
H          -2.67821263822348   -1.72734882467441    0.88096852436112
H          -1.68699306909945   -0.57812733291443    0.25185278572605
