    26
        -50.46415484  Gyration_radius:  2.51986013319 Dipole_moment: 6.949
 S          -0.51723974164352   -0.01159025776769   -0.26823083576906
O           0.35846812554830    0.93408170194108    0.42481438501334
O          -0.32047905356572    0.12779183498163   -1.72294167243309
O          -0.03042542801515   -1.44432037201187    0.05296390559415
O          -1.89930960043195    0.12612502804357    0.12129354701239
O          -3.23216657486265   -1.82602304126582    1.33415668372748
H          -3.53264356177083   -2.43769356615382    0.66076920880180
H          -2.85521300253947   -1.05753970694416    0.85547245418422
O           2.08215968611808   -1.09176468408945   -1.72391662841593
H           1.16425078978238   -0.77487192194025   -1.82109334432270
H           2.01291084936855   -1.86437072521267   -1.15791645335523
O          -0.97228313776565    0.78046749187763    2.72504075929584
H          -0.39889998478749    0.96502383102181    1.95711748801874
H          -1.86846998861824    0.88645213263487    2.39273004897930
O           2.79980015726244    1.17546505649958   -0.51330965931599
H           2.84791075687821    0.28353144532517   -0.92324558585756
H           1.99547386939835    1.86994964761114   -1.54653060578042
H           2.03679935393311    1.10713984198671    0.10326149828093
O          -0.76985622774822   -1.86020486992027    2.42150539300224
H          -1.71287399384531   -2.05404815208420    2.24465086694510
H          -0.28153468643320   -1.65950302543182    1.03133284932244
H          -0.76518997323463   -0.93960365935639    2.77233800080475
N           1.17079648759580    2.16283045098608   -2.22333884683475
H           1.46802637797139    2.20481028352201   -3.19295747655380
H           0.75803629926248    3.04114919967526   -1.92679750418098
H           0.46195220213967    1.35671603609143   -2.07716847617226
