    26
        -50.45064651  Gyration_radius:  2.41381129492 Dipole_moment: 1.332
 S           0.41840576766518   -1.31971645909557    1.50309207819505
O          -0.88424822511989   -1.03267124128558    0.92874786662464
O           0.96419842092971   -2.60153033718455    1.11471979047421
O           1.34111287594846   -0.21344066007990    1.30274181676977
O           0.16635020836122   -1.41309055009340    3.07321051675698
H           0.88632491526216   -1.96755007910762    3.35644398446268
O           0.28759568798605    1.46671069826274   -2.09836847878533
H           0.38090012672907    1.49670947408171   -3.05186194253789
O          -2.49907714884293    1.25562115397488    0.68094541154406
H          -1.61866554909118    1.75471880604282    0.82766819080033
H          -2.43036606286335    0.48756841366864    1.26238400254378
O           0.39303757742365   -2.11099786403179   -1.38046054252723
H           0.61126077185008   -2.37688799223725   -0.45967894225084
H           0.08270258438010   -2.90328385061821   -1.82208821191836
O           2.16119217189807   -0.05971680551761   -1.21927298898920
H           1.76687840557639   -0.90014704217137   -1.50313887704100
H           1.08153789503872    0.94254564863727   -1.75533523607300
H           2.03043971939969   -0.05688973413749   -0.24797598746763
O          -1.63713446149574    0.01143105270424   -1.26751753729481
H          -2.14655535468920    0.62446383782614   -0.51772122066408
H          -0.87809425300172    0.59625919624713   -1.64234628815805
H          -1.20511360007211   -0.64706776417874   -0.63925838924388
N          -0.09243555990768    2.20177806831899    0.89286211436919
H           0.17224835728383    2.91393217777099    1.56066388131347
H           0.22202158687536    2.50133495303583   -0.02314730303581
H           0.42548315249130    1.34991688918033    1.12469229214727
