    26
        -50.45064776  Gyration_radius:  2.4167384861 Dipole_moment: 1.292
 S          -1.40378168091836   -1.44939652738779    0.32800319508799
O          -0.29984984320409   -1.50299503892697   -0.61512024753198
O          -1.22719290622553   -2.29064785002322    1.49093734234496
O          -1.75493974260314   -0.07642382717604    0.65356183003059
O          -2.64834906873573   -2.05605225613327   -0.45957137078896
H          -3.18638658073360   -2.39201676017402    0.25015236754752
O           1.57753351437592    1.98544617232974    0.41705150022251
H           2.36750463311184    2.30315893825314    0.85727995474526
O           0.51088933603317    0.05277266884276   -2.85434188826135
H          -0.08400787967450    0.76163372290905   -2.42210181651197
H           0.03247942394262   -0.77337132733450   -2.71352784943944
O           1.18125062520779   -1.34711781917999    1.82842132189003
H           0.29612681534228   -1.76636783807923    1.75034257688527
H           1.78553510389538   -2.04363778007131    2.09085011772346
O           1.87990254044519   -0.22615132579505   -0.81627191516656
H           1.43914544145118   -0.06075430646678   -1.79594932992903
H           1.79810889144800    0.66870733536994   -0.31303814911717
H           1.16204986758304   -0.83166512946748   -0.44250491313359
O           0.02892432578005    1.06992802557182    2.25394508698987
H           0.53289032103097    0.26025122862062    2.43465475625613
H           0.93746476925894    1.71319238902661    1.15156127801360
H          -0.75382291831309    0.75088514856172    1.75802237750844
N          -0.91174812183362    1.67858210156762   -1.41267516472950
H          -1.29112462315924    1.03707529445612   -0.71127490863901
H          -1.68171454598399    2.22195007244058   -1.78029495114925
H          -0.28688769753008    2.31301467825366   -0.92811120085312
