    26
        -50.45064727  Gyration_radius:  2.41553564606 Dipole_moment: 1.309
 S          -1.81539894583552    0.59889995852947    0.72351232905912
O          -0.71138486862660    0.04028542606001    1.48442031061746
O          -2.00777967278976    2.01877345186550    0.91912503848697
O          -1.74291310717777    0.21248075088889   -0.67666357768545
O          -3.11859712620952   -0.10133393488484    1.31388358779986
H          -3.79644056310569    0.53180775289887    1.10052210395925
O           2.09096121561536   -0.14485029911967   -1.49118469819826
H           2.90076388821532    0.27852532350854   -1.78059839486852
O           0.72686197250496   -2.39805411959828    1.44314944424219
H           0.35870484551394   -2.46022628010726    0.49201238856817
H          -0.00032934712132   -2.01711652052476    1.95092165352375
O           0.54054068101130    2.43854022644329    0.56123105194143
H           0.86188304727653    3.11731720975658    1.15699413865196
H          -0.42308152735239    2.35421100997971    0.73483325076336
O           1.77626583096053   -0.19926950170111    1.03944553220590
H           1.48369281732705   -1.22535651190412    1.26092287022980
H           1.94335752931779   -0.16536467357951    0.02400889720203
H           0.87973309805322    0.23720533063111    1.19590058302670
O           0.18363169765238    1.51352404900417   -1.96236592644694
H           1.33831118151592    0.47319623256452   -1.76462678238052
H          -0.61821907366661    1.04424174335616   -1.65047683982622
H           0.38717607030261    2.12862407308985   -1.23932535556299
N          -0.21159594111383   -2.16067448326523   -0.96606619486316
H          -0.73391218115689   -2.88840991662592   -1.43597444161889
H           0.54095596735329   -1.87146291375207   -1.58066901851982
H          -0.83318747845711   -1.35551339350285   -0.85293195030656
