    26
        -50.45064701  Gyration_radius:  2.41522241999 Dipole_moment: 1.309
 S          -0.94612747944961    0.86809461271758   -1.59011941429455
O           0.45692777431396    0.50279472169447   -1.50116922213630
O          -1.72847956711072    0.00050208995277   -2.44252366501296
O          -1.52737867377748    1.06121056649015   -0.27113790486434
O          -0.95701886506753    2.29516227289482   -2.29770362944350
H          -1.82090341535607    2.31104013386484   -2.69695524951224
O           0.39293028513796   -1.39855888427479    2.12434711141103
H           0.45193726842884   -2.27446173700523    2.50917674523145
O          -0.70347901503983   -2.09779545661093   -1.28284254269154
H          -0.53178475035586   -2.79128317124574   -1.92209126512044
H          -1.11025222545599   -1.35664009549975   -1.78383774994635
O           2.61161714927223    1.21985236693193    0.18259366366884
H           2.28114050241149    1.46938434472031   -0.68944432155370
H           1.86553149056287    1.50429337949877    0.82048876169332
O           1.75738059096477   -1.08874557603911   -0.00883961875111
H           2.28969652053773   -0.14782058969406    0.13583547311682
H           1.22706604187459   -1.25029677520778    0.85850160019487
H           1.09119988132318   -0.76710273176025   -0.69494127514804
O          -1.91007185668124   -1.24448395713986    0.99126485043986
H          -0.54808199200975   -1.31380467465810    1.76324723226466
H          -1.92476140494916   -0.34052361786349    0.61281604770506
H          -1.70099720873345   -1.80992114059401    0.23037330370787
N           0.49868870265348    1.66347697148718    1.62395669964382
H          -0.23961572273846    1.53160521249381    0.92748839787799
H           0.31990001120008    2.53822967082838    2.09940700615349
H           0.40493597805755    0.91579205400444    2.30210894535193
