    26
        -50.45064685  Gyration_radius:  2.41549321509 Dipole_moment: 1.304
 S           1.12316825698909    1.32936374917401   -1.07105337503040
O           0.85891981513522    2.73451685234299   -0.85348530882500
O           1.52388501334905    0.61036579554119    0.12568416918770
O           0.04947133426149    0.63997928357010   -1.76886462882981
O           2.39209234056285    1.26998735277271   -2.03189795822614
H           2.26028039000291    2.03579906326406   -2.58149896043644
O          -2.04312683661142   -1.18217108099814    1.02314374866810
H          -2.76186768526817   -1.13788368685129    1.65578859042444
O           1.78394568043981   -2.11533795192452    0.83633084569546
H           2.36532634866238   -1.40344742574894    0.54127371693761
H           1.14910898517125   -2.25885058244624    0.04874391661694
O          -0.60969346325298    2.16538592695185    1.22378126290082
H          -0.04645096834820    2.45566590951811    0.47242289808651
H          -0.48941039737831    2.81705199913895    1.91650207067481
O          -2.26832755030598    0.88162970505896   -0.49341611435552
H          -2.19327803517833   -0.42052229913275    0.37462541034021
H          -1.95556260140164    1.53271012409380    0.15558671702752
H          -1.51835756280378    0.79725700424856   -1.11861589645214
O           0.23984162753444   -0.56138527709794    1.97643118649297
H          -0.69680931123498   -0.81348910504679    1.63105400145601
H           0.90964682719712   -1.34708263811422    1.62777914824584
H           0.57387134133664    0.18077688541530    1.37989396598513
N           0.03712070064765   -2.11565657887241   -1.08474677078887
H           0.10741342031942   -2.70563048537267   -1.90340486172696
H           0.09414850712790   -1.14262330918448   -1.39685581661925
H          -0.88535618697402   -2.24640922030279   -0.68520199744105
