    26
        -50.45023530  Gyration_radius:  2.51065929516 Dipole_moment: 0.832
 S          -0.01902638391815    2.03373566448542   -0.21144619168981
O           0.75636190414515    2.02680201793061    1.00925897382675
O           0.72729716844837    1.43467598031168   -1.32209778693699
O          -1.33935929023986    1.45802752744751   -0.08406470955130
O          -0.22636558828077    3.55465779985781   -0.59485989136385
H           0.63607008947930    3.89656812019444   -0.38714711479687
O           1.17787980616896   -1.85412416811754    0.95325310674386
H           1.83488649058244   -2.39063291950858    1.39970972415401
O          -2.22688951471122    0.22280082476199    2.10271191220786
H          -2.72561136753298    0.85579853757540    2.62125233544310
H          -1.97731395788406    0.68702139866427    1.27615768145963
O           0.52015937191380   -1.54102710487154   -2.86069110796122
H           0.37299245325527   -0.78950202103229   -3.43959075117947
H          -0.24883941744689   -1.52888149904195   -2.19028634959437
O           2.05258132486014   -0.64200073885173   -1.09714107582072
H           1.54433846355328   -1.11616806421995   -1.88877500178095
H           1.58118737286224    0.29407404108346   -1.11147865787829
H           1.73164361078499   -1.12950099891984   -0.24345271142459
O           0.41546210781124   -0.06119292578785    2.60032502615364
H           0.63587213745409    0.76587042286059    2.12210200742775
H          -0.56240740028726   -0.08727569312028    2.60188604999875
H           0.87354130305145   -1.16254499613720    1.63516413997299
N          -1.23210990983439   -1.28740432075011   -0.95267100719791
H          -1.29256420664377   -0.28575464647281   -0.76604936416326
H          -0.83128423610620   -1.72001945816078   -0.12732897512004
H          -2.17850234148408   -1.63400277018439   -1.04474025093478
