    26
        -50.45064738  Gyration_radius:  2.41600348866 Dipole_moment: 1.300
 S           1.23523196032593   -0.96079116930124    1.31512509538474
O           1.57112190166261   -0.25968665513910    2.53454666859775
O          -0.18849601147954   -1.18586238443104    1.13422801118494
O           1.83331951890804   -0.37449836988463    0.12634217976750
O           1.86751478371663   -2.41521334015809    1.46396458891765
H           2.65256208039147   -2.23781017630718    1.97207850079952
O          -0.96857209856130    1.83056671167796   -1.52358944989914
H          -1.40346172680354    2.68315732710875   -1.57598711297121
O          -0.26080513533560    1.52776531909570    2.03492908986041
H           0.42717332612868    0.87917135342315    2.30242819868692
H          -0.71361243018204    1.78542304278148    2.83967564917693
O          -1.83394067514126   -1.98761115520274   -1.03174505422528
H          -1.42661327094945   -2.40714921946967   -0.26383123381738
H          -1.04022572766541   -1.67708744895093   -1.59513993980613
O          -2.05264745397771    0.19412764808585    0.10526259860574
H          -1.64800988491430    0.87933981244727   -0.54806918291927
H          -2.13146692512191   -0.73965818439220   -0.44915071026632
H          -1.30843671857505   -0.07872463486444    0.73083178892895
O           1.18440754297177    2.18513552758205   -0.16323983251596
H           1.58792764723033    1.29261736127546   -0.13068506643574
H          -0.08037782685999    1.99663442149815   -1.06893576381404
H           0.75665405619033    2.27655456232388    0.70338600889876
N           0.25835078197900   -0.94829589159826   -2.16490764955198
H           0.79592009780004   -1.41700348601563   -2.88223280208541
H           0.87008234120810   -0.81482360089267   -1.35529863486856
H           0.01639985705343   -0.02627738070380   -2.50998593562892
