    26
        -50.45023500  Gyration_radius:  2.51118964423 Dipole_moment: 0.850
 S          -1.36567929689089    0.06662341241260   -1.52077560573993
O          -1.28193075248801   -1.30231139772677   -1.00265327757734
O          -2.11458836111537    0.92348144728037   -0.62852988417166
O          -0.06430301411441    0.57865888530360   -1.88851995804189
O          -2.20711788705403   -0.02406399566097   -2.85761410990009
H          -3.08309968422467   -0.10413280280603   -2.49695628927090
O           0.30355173127978    0.23138194204813    2.36342689328717
H           0.14103178287946    0.34425146492693    3.30129798822578
O           1.02710942261311    2.77166409395211   -0.84195275134120
H           0.67636745448160    1.97309971957726   -1.28935594304079
H           0.84005842690892    3.50661814710554   -1.42773012033905
O           1.20811839404911   -3.02787228161656    0.45585583809671
H           1.61974351290786   -2.13175715627338    0.19415882937573
H           0.89027003128672   -3.41790340404305   -0.36158849552301
O          -0.70036418008778    2.25132383961035    1.17204077022583
H          -0.00171523969009    2.59977982196629    0.58271593391619
H          -1.34634458558439    1.83467886762024    0.56331419375536
H          -0.08461424010468    1.05732861277164    1.91251367311291
O          -0.79227912427932   -1.82764912131430    1.36470063638261
H          -1.11459461726383   -1.55561823484071    0.40510533524458
H           0.02909085412815   -2.43888420037050    1.11775272429138
H          -0.37772278303308   -0.98367363473537    1.79539324070011
N           1.92274854253056   -0.60520733950057   -0.17195895153113
H           1.80033130017064   -0.03889536364226    0.66070675938591
H           1.23608479023345   -0.28420254046058   -0.85559707068653
H           2.83984753247147   -0.39671879157955   -0.54575033883000
