    26
        -50.45064654  Gyration_radius:  2.41375042635 Dipole_moment: 1.338
 S           0.43498981616040    1.48485789709672   -1.33423696533358
O           1.46912967190339    1.20611796199238   -2.30627075631501
O          -0.68797106912450    0.56560111608771   -1.38480068155099
O           0.94055839917398    1.63017322553951    0.02184576166279
O          -0.17148088033362    2.90112291824831   -1.73906653582159
H           0.59648119789692    3.35834533043644   -2.06641186272282
O           0.30617309669247   -1.83375547073680    1.78235776143344
H           0.63011925318911   -2.71296670175907    1.98423200105354
O          -2.86350919097364   -0.02456171337885    0.29376902427563
H          -2.68911493056623    0.50787611538398   -0.49291631878405
H          -2.27943340688725    0.40385643857005    1.01520546523820
O           1.43907758714910   -1.31576663848435   -1.65105403270786
H           1.56518742990809   -1.87133102632009   -2.42199417757651
H           1.48397302634633   -0.38722108780768   -1.97068936390349
O          -1.15022779602724   -1.69520443211028   -0.30815709924854
H          -0.56714514492382   -1.79418273900718    0.53407175065355
H          -2.01542760361612   -1.09776022024206   -0.00630402828736
H          -0.69882400005129   -1.00571160022306   -0.88714828547860
O           2.28769596499327   -0.52258032500936    0.79991776482912
H           1.91470010214827    0.36495158093554    0.61609552252067
H           1.11189822282628   -1.29913987023461    1.48568540169077
H           2.29175338707057   -0.95605018664887   -0.06891222034246
N          -1.07208730700661    0.94364386934001    1.90245364320303
H          -0.37381389872844    1.27256722093271    1.23025116641370
H          -0.65103304627806    0.17986471635680    2.41922763865850
H          -1.25166886093567    1.69725361106206    2.55284942641089
