    26
        -50.45064724  Gyration_radius:  2.41542823233 Dipole_moment: 1.308
 S          -0.52894832582571    0.01950092073943   -1.97423230410297
O           0.54617415852922    0.01221236862580   -2.94140544018670
O          -0.52847339397429   -1.12489508656579   -1.07966076144813
O          -0.63523683549513    1.26840638685342   -1.23671860880036
O          -1.87297739869628   -0.11761498107214   -2.81793580816130
H          -1.65984643752602    0.36675576389739   -3.60904182282230
O           1.15530834206438    0.63113898654591    2.21045947156520
H           1.97025188096338    0.64371071035663    2.71491938123791
O           2.26759386772314   -0.53396394676911   -1.06082286895489
H           2.93070708781876   -1.15150808870478   -1.37362130595291
H           1.67438659649004   -0.35761430597210   -1.82423940713771
O          -1.83931931789306   -1.78188168130063    1.34035162902392
H          -1.95917924905151   -1.96521140352851    0.40018593242553
H          -1.95824007746632   -0.76954916767235    1.41207971584844
O           0.61581769366234   -1.61699505214790    1.13255464814518
H           0.86372600679114   -0.72886011487263    1.59045063996537
H          -0.43266979457415   -1.79504470875544    1.37151069237303
H           0.50102277134740   -1.40994125871390    0.15147582222719
O           1.63084519145540    1.87404721827900    0.01057327229083
H           0.77798434660125    1.83524412018328   -0.47063520753030
H           1.32380376255487    1.20042233378976    1.39149005325383
H           2.16133797789436    1.17381477774792   -0.40274477957038
N          -1.80967331254668    0.81408651307966    1.30797898323541
H          -1.09462775795806    1.13860889231394    1.94916206214634
H          -2.63367908056203    1.38396097441136    1.44755064928202
H          -1.46608867230374    0.99116981928424    0.36031535162624
