    26
        -50.46281205  Gyration_radius:  2.46851007395 Dipole_moment: 1.923
 S           0.67216690741852    2.02297446738477    0.14276732011165
O           0.57657993817922    1.06825806323575    1.23890112442274
O           1.23857415397805    1.40838249475046   -1.05163007933337
O          -0.57685587007118    2.70597853986754   -0.11691412719151
O           1.69507311722137    3.13679944065962    0.61147849085740
H           2.46805736697740    2.66073092043102    0.90265820785788
O          -0.94825838666594   -2.23918403994179    0.61569122648941
H          -0.20143737700093   -2.84157133856488    0.57627952161163
O           2.48117841009840   -0.54050906284649    0.21123151445809
H           1.89858856110659   -0.31475493946389    0.95090228790997
H           2.25251717622393    0.14627426410175   -0.44453590269873
O           1.34048306853741   -2.51620219518192   -1.17877047747137
H           1.83125904522695   -1.87000897265788   -0.61556109332385
H           1.98983282131116   -2.90265858685939   -1.76664174964446
O          -0.49427599314751   -0.53679902576798   -1.63133140135582
H           0.11902967755626    0.21902894247015   -1.52016849354562
H           0.09110509184575   -1.30520641601951   -1.76441415627632
H          -0.85976289857673   -1.68918591552546   -0.17821289748410
O          -1.65780306214091   -0.11601584995372    2.09875084649011
H          -0.80947009624003    0.36533365793970    2.01582438772844
H          -2.25332451871485    0.41333617772950    0.79411769323404
H          -1.44779362188445   -1.03210174980488    1.83076167808911
N          -2.37077011547015    0.83147024079092   -0.20170035390354
H          -1.94093397566205    0.18287470535521   -0.88126050880925
H          -1.75916565324113    1.70138219613942   -0.20199248540571
H          -3.33459374688093    1.04137396174202   -0.43623057279507
