    26
        -50.45023464  Gyration_radius:  2.51117320503 Dipole_moment: 0.867
 S           1.52796069174756   -1.31473678042939    0.33950847891034
O           1.71235047935933   -1.25577577621902   -1.09355711575543
O           1.84285600598729   -0.02996621927202    0.97217466506651
O           0.23555016346673   -1.81212921856821    0.75564071750379
O           2.60136379225807   -2.34227954157942    0.88260835290718
H           3.35291185282820   -2.08809334724771    0.35879934404419
O          -0.84785074414855    1.66537045579605   -1.49385798355516
H          -0.93716001369667    2.28928119051776   -2.21601194863356
O          -0.08750824883823    2.41250515229453    2.23879855056153
H          -0.73348024802692    1.66973381065520    1.97005216515294
H           0.51215561399332    2.01848285155806    2.87655694301136
O          -1.76824267839177   -2.34350076391455   -0.91768357177963
H          -1.74324691150257   -3.27896621149874   -1.12407092622083
H          -1.06773959653665   -2.19568517294415   -0.24811081804692
O           1.10498401504072    2.14543640048763    0.05398207157601
H           0.63243551512160    2.42768534276973    0.95228280826691
H           1.49501228583091    1.21414634031031    0.33585752592450
H           0.33220154738430    1.96185500127773   -0.60803763752301
O          -0.42624818351508   -0.63074873160566   -2.52283406514750
H           0.43762096297303   -0.87785351855018   -2.13040963878140
H          -1.06574447981150   -1.24205162768824   -2.10541056967821
H          -0.70329259202515    0.75618459337019   -1.92788616216167
N          -1.48879016299829    0.43022784245955    1.30020460221948
H          -1.75627405442315    0.68319213343476    0.35497878778616
H          -2.32022633569024    0.09341922117333    1.76877228931513
H          -0.84159866640284   -0.35573340657834    1.22765313503953
