    26
        -50.45023490  Gyration_radius:  2.51124460577 Dipole_moment: 0.857
 S          -0.55515691722207    1.87377853658955    0.60273477800428
O          -1.59236849308765    1.18292509562709    1.33623860341706
O           0.77428035394608    1.56523115669228    1.13849007985704
O          -0.60998931707034    1.68600125705687   -0.82993673469267
O          -0.78203278201205    3.41783181019097    0.86238244410797
H          -0.99012197032097    3.40073756667572    1.78983894596171
O          -0.06202418132243   -2.32761199471700    0.55480647854361
H          -0.20126672977501   -3.15672074985866    1.01519064973043
O           3.26676614235289   -0.40060393531739    0.02910413493878
H           3.50955792761819    0.52401022058534    0.11667161290010
H           2.55466723481192   -0.43239847119976   -0.70082142357542
O          -2.28670073358366    0.01707812260810   -2.05405020556582
H          -3.05523844096652    0.51756054275718   -2.33184790450707
H          -1.66168927793556    0.66982617514664   -1.67426487135974
O          -2.32877631218422   -1.17069108693003    0.37474198091177
H          -2.16649238008748   -0.32136536196308    0.83700309709606
H          -2.43645952233087   -0.91901335316838   -0.56433971690739
H          -0.98026724041949   -1.89603006214090    0.47534312621114
O           1.48748939838165   -0.72040009316938    1.76086710513221
H           1.10128209372146    0.24054593092683    1.59916542895255
H           0.84118567551661   -1.38685627511186    1.30529495769416
H           2.33272761735404   -0.68833000045247    1.13289500091701
N           1.21041663441882   -0.42147315466024   -1.56624827771832
H           0.66227999720117    0.40344501599449   -1.31940979932556
H           0.65498070886948   -1.23281154369649   -1.31675296055859
H           1.31295051412623   -0.42466537846307   -2.57309652016401
