    26
        -50.47229141  Gyration_radius:  2.48086278571 Dipole_moment: 2.005
 S          -1.55150778688021    1.63087332658795    0.35557174992498
O          -1.35224760788379    1.77251311565684   -1.07251227603935
O          -2.58751969694602    0.68146263461369    0.71432125803987
O          -0.29738557045390    1.35538309601267    1.04929431120738
O          -2.06149982343656    3.03761989971315    0.87806769034779
H          -2.53418555517882    2.78333224312127    1.66351304162753
O           2.11573531277115   -1.56800786157183    0.73036658481069
H           2.68949931898198   -2.15413693785904    1.22403985811344
O           0.54586187359850   -1.77957411036710   -1.52101094201396
H           1.18861436581442   -1.86652974998781   -0.79398677361616
H          -0.33150121748515   -1.79496633454285   -1.09385861750584
O          -1.82188715057730   -1.63649124990526   -0.15041482360304
H          -2.14449524311162   -0.74369745176272    0.13553011692352
H          -2.59655142321080   -2.10924311030016   -0.45863718616320
O           2.26436752926840    1.14715363564268    0.24900575835447
H           2.41971644489795    0.21337262978337    0.47937427256927
H           1.59262266968954    1.02679359759671   -1.18876478259624
H           1.42849882512092    1.37907633100689    0.69784620832374
O          -0.11111159363410   -1.11967479075685    2.00676306132480
H          -0.21399572867733   -0.16779925475462    1.79739819701228
H          -0.78656995662036   -1.55959253269365    1.47238420001659
H           1.29826848443175   -1.43239558554193    1.29126694121237
N           0.89981930999514    0.79512454669675   -1.96396805333399
H           0.76098262860950   -0.25855642388224   -1.94851920083987
H           1.20533708596409    1.12767897100115   -2.87086803823409
H          -0.01886549504859    1.24028138649447   -1.68220254586473
