    26
        -50.45023537  Gyration_radius:  2.51059630953 Dipole_moment: 0.828
 S           0.74560068408785    1.67327440228316   -0.90807612471070
O          -0.62147428383723    1.93555127892262   -0.44799281761935
O           1.68297366068323    1.68122699681807    0.19317457022343
O           0.81092283252132    0.49250917457356   -1.74020637637902
O           1.13816216909620    2.89678231487831   -1.83120115921916
H           1.33720274110909    3.54730392560365   -1.16711877061103
O          -0.20463436502936   -1.16778417938985    2.08018541146135
H          -0.16643433462997   -1.39692627462498    3.01013111896249
O          -3.29057863633847   -0.04599963453100    0.00771810124853
H          -2.57309048033352   -0.64713822222180   -0.39824892864114
H          -3.42973644622400    0.65952817219416   -0.62819672146478
O           2.30561879023391   -1.64251934219837   -1.19001199844634
H           3.12910423708720   -1.56255469688932   -1.67346558120997
H           1.75336316433330   -0.88209062212559   -1.46880354744737
O           2.17880821300937   -0.65945596351289    1.32555164928176
H           0.75714723676024   -0.99192105617231    1.79735786390725
H           2.32878288567499   -1.18648812096420    0.51522917873533
H           2.10123789205828    0.26366922880639    1.00433165737525
O          -1.58778417142902    0.89982693428739    1.58010511459041
H          -2.41374911164887    0.51197480556223    1.05360284838277
H          -1.01116859194248    0.07487865452102    1.81789151752319
H          -1.09643703876795    1.40422712931224    0.80374698318665
N          -1.21973139526019   -1.35717381326080   -0.86846132973311
H          -0.76048333493628   -1.75595990198477   -0.05661384097666
H          -0.58965594627851   -0.65186186206751   -1.25228661164221
H          -1.30396637998869   -2.09287933780398   -1.55834219677454
