    26
        -50.45023528  Gyration_radius:  2.51076190751 Dipole_moment: 0.834
 S           0.41360605885265    1.99798835792601   -0.13745968545204
O          -0.70561221937602    1.79397740402794    0.78731563067249
O           1.67401938595217    1.63613585909671    0.47227549602550
O           0.16809322373848    1.37290094309741   -1.41808531727888
O           0.48178645532773    3.55616450970975   -0.40309725212184
H           0.90442751846994    3.84256235943613    0.39892345346140
O           0.50715740784373   -2.02378529269782    1.17576314779411
H           0.86060660634800   -2.65283866135707    1.80676691770613
O          -3.08606700965256   -0.56427204717491    0.99297956384180
H          -2.56187365472764   -0.78238787945918    0.14528375037169
H          -3.42561046691174    0.32492042691328    0.86774638202531
O           1.72715017591908   -0.50241666103671   -2.48945745320469
H           1.12466749894038    0.20149497865056   -2.16929769054866
H           2.33498234259579   -0.07520356200600   -3.09468602444549
O           2.49081180176954   -0.85127820661166    0.08073849061627
H           2.32269108773677    0.08925198287280    0.30080350139444
H           1.31466813884408   -1.58625042125359    0.73718478298559
H           2.34343737416002   -0.90454934852215   -0.88483019965875
O          -0.93134405375510   -0.21174251768679    2.21762315305961
H          -1.89399053642257   -0.43180899859878    1.85062909543319
H          -0.32097128365177   -0.94867160991613    1.82531280556334
H          -0.72945492318344    0.66889986650697    1.68626961953937
N          -1.46495970859441   -0.96454544487051   -1.00379631780405
H          -1.79306947619001   -1.29259953510384   -1.90323747931722
H          -0.76051220508450   -1.61982620770946   -0.68226660411124
H          -0.99463952893995   -0.07212030423409   -1.15940174656441
