    26
        -50.46281244  Gyration_radius:  2.46873337401 Dipole_moment: 1.930
 S          -1.39909535847977    1.10799911681135   -1.17588597267644
O          -0.38239091507645    0.52977993358096   -2.04614447564618
O          -1.72234822113286    0.21692265771314   -0.06989766865854
O          -1.06761691156334    2.44714725172752   -0.73928380900541
O          -2.71808669352073    1.23988797131630   -2.04163893483349
H          -2.99102815092067    0.34390962175356   -2.21959684022287
O           1.03506512619843   -1.25432783720937    1.91464328870656
H           1.08044261433541   -2.16377953476933    1.60967396390580
O          -0.84492199361552   -1.97423670819983   -1.37426276958079
H          -1.30766156262462   -1.59522571671481   -0.61296340725832
H          -0.59949075105683   -1.17616245543052   -1.88121452187761
O           1.66759897431245   -2.51063339559061   -0.64284017026102
H           2.06814240609966   -3.08747460686641   -1.29353942248057
H           0.71692542451982   -2.42839482542968   -0.89808685245828
O           1.72208952503405    0.21809492918191   -0.43487010290130
H           1.01546885716663    0.39912355291318   -1.08893051900561
H           1.33531925561808   -0.72839982692975    1.15718007464474
H           1.98704827900683   -0.70282001591394   -0.61530450116529
O          -0.91824118157357    0.50498537094342    2.46078498726709
H           0.04483958811768    1.53627562792203    1.87360838646994
H          -1.42632854419281    0.37051284862727    1.63492596484588
H          -0.32520076010077   -0.27017459749649    2.51423084224021
N           0.64380452674874    2.12777129311625    1.18668298338766
H           1.33200226205165    1.50464645527946    0.73344532663654
H           1.08799026752942    2.92526165540299    1.62796221855209
H          -0.03432604289078    2.41931125429984    0.42132193134671
