    26
        -50.46281181  Gyration_radius:  2.46854635555 Dipole_moment: 1.917
 S          -1.62717197684200    1.25850964933247   -0.57855737608213
O          -0.47456603567752    1.65391714801529    0.21952263442756
O          -1.23260724590150    0.42682886980334   -1.70887181345908
O          -2.68120648251938    0.66329109092067    0.21440327241114
O          -2.22859971970759    2.59300950166212   -1.18218508735707
H          -1.48943258289932    3.04063738973813   -1.58492910232688
O           1.95776138654248   -0.92528888470284    1.26932533632658
H           2.71062997630256   -0.78849646820081    0.68923827321538
O           1.25850811558004    1.27507449178324   -1.81189008682391
H           1.09269903878947    1.60594958825577   -0.91726885107234
H           0.38086916209192    0.93082888862703   -2.06751314623148
O           2.36178491260569   -1.14937214187087   -1.61508804449475
H           2.73412050109846   -1.39502149560623   -2.46220353882228
H           2.06454829857835   -0.21194452368924   -1.70794206413870
O          -0.10047220333228   -1.69708860964031   -0.55591616781241
H           0.73538020700618   -1.78163661591201   -1.05121334669076
H           1.25842832499813   -1.25905659033401    0.68621538478000
H          -0.58947987702477   -0.98975223463439   -1.02536473934746
O           0.21949704735367    0.63796361716129    2.59099317690866
H          -0.79843524368367   -0.44988658282708    2.24421370850216
H           1.04517386244025    0.19042347551166    2.32047477558600
H          -0.00477279397715    1.21864503424013    1.83562648606984
N          -1.49129635172193   -1.09344199652728    1.71011343605906
H          -2.02245845057459   -1.70373288992918    2.32121143248720
H          -0.96199877553397   -1.62471347524528    0.99930916295915
H          -2.11690308396341   -0.42564623594125    1.16829631492482
