    26
        -50.45023533  Gyration_radius:  2.51055278694 Dipole_moment: 0.830
 S          -0.47819351604139    0.06676720394208   -1.98667546584263
O          -1.81106788256750    0.36402968001376   -1.51070040532107
O           0.45571964295815    1.15242994244450   -1.67275608077960
O           0.03505925086810   -1.21724375464002   -1.56390747949646
O          -0.57386739040183    0.01566462829692   -3.56511331491279
H          -1.15644623054685    0.75099779874517   -3.71902735681465
O          -0.61891824642060    0.75680555842311    2.18546004095032
H          -1.05283312515454    1.21149715450942    2.90916782624482
O          -1.19764649588647   -2.82268234930594    0.16766116135724
H          -0.70256085431432   -2.29604753806644   -0.49453553645895
H          -1.69933208018688   -3.46952563300357   -0.33048736445569
O           2.86626380102696    1.48596755556819    0.63704765649638
H           3.17780453807704    1.55623868423160   -0.26821215737129
H           2.52402155384145    0.53022156415641    0.73872373310230
O          -2.41665132169344   -0.52546606146164    0.90777176546994
H          -1.35018953038882    0.23615618342570    1.70571904289248
H          -2.33934289596930   -0.14661541124886    0.00674537400571
H          -2.08687198108552   -1.44168260557734    0.81479935210904
O           0.50336700520454    2.30368690998404    0.51632674402474
H           0.36298476381261    1.87210651880546   -0.42846417845190
H           0.01603274137771    1.70024011249289    1.20032796352348
H           1.52797394904477    2.10449444971611    0.65905466738928
N           1.67521417482185   -0.82451824462029    0.77279486424501
H           0.95592663737153   -0.74206636170840    1.48333108394966
H           2.18421145149480   -1.67955932861307    0.95744022134065
H           1.19934206076729   -0.94189666652549   -0.12249213720559
