    26
        -50.46281231  Gyration_radius:  2.4683510762 Dipole_moment: 1.925
 S           1.18760355222464    0.66780207742959   -1.64512597744181
O           1.32432285930848    1.60696247033675   -0.53855091104766
O           1.06971756865089   -0.70354339972214   -1.16827579343522
O           0.13243240289034    1.03446326286956   -2.56494995994229
O           2.53663146417404    0.73741055159763   -2.47095841348796
H           3.20313179160902    0.37597562221868   -1.89295659690203
O          -1.35033877428944   -1.47671072515087    1.51133526478410
H          -0.80868575668652   -1.58559676535267    2.29669431875695
O           2.24529132179764   -0.14935582401880    1.19477042000568
H           2.07572642353094    0.68484468039284    0.71584529245772
H           1.90245626499493   -0.81037395962764    0.57597165063601
O           0.37603719208876    0.31301740835338    3.04611946455799
H           1.12068061665650    0.07253945586980    2.44336546752130
H           0.77022403999257    0.78423681393015    3.78038057412811
O          -0.93428679392591    1.26827948267005    0.84246599962227
H          -0.13657631921910    1.49982381700817    0.32304181730503
H          -1.28446908292966   -0.53270764148882    1.29885835820705
H          -0.60742812754212    1.17007582535881    1.75599271304778
O          -1.17338426769818   -2.15094888630250   -1.08190763254343
H          -1.26616078418959   -2.21432844100446   -0.11107615584831
H          -1.86167086287384   -0.80793380971555   -1.32798644054882
H          -0.26418146779671   -1.81588835349097   -1.22083134323631
N          -2.06459629207494    0.25499828942083   -1.42272583067847
H          -1.96309785171029    0.69134467820885   -0.49179693253610
H          -2.96779606045412    0.45443413484510   -1.83801773305777
H          -1.26158304646546    0.63117924534854   -2.00968163034197
