    26
        -50.46281229  Gyration_radius:  2.46839030093 Dipole_moment: 1.927
 S          -0.80938188048420    1.57786557872704   -1.19107014250832
O           0.64259341959551    1.70115084757293   -1.14876995237347
O          -1.22493999550499    0.18189588992047   -1.21286695181985
O          -1.46747649545367    2.34311853304879   -0.15408962781837
O          -1.28008563550196    2.20365833614706   -2.56717417702477
H          -0.94238847270259    1.61603454455995   -3.23767706272845
O           0.21752470764170   -2.16527248095060    1.24866632145034
H           0.85457575245974   -2.67671592441562    0.74399266033849
O           2.68915245045083   -1.50079821351233   -0.15988268086352
H           3.60098125402631   -1.52147382811818   -0.45098465592865
H           2.15052820383601   -1.29477761775703   -0.96185111054079
O           1.14508293032134   -0.67162677930122   -2.17560838204508
H           1.21645252059188    0.27193420776438   -1.93335873994083
H           0.22375258710177   -0.86789546930820   -1.95192166207878
O           1.30206028622274    0.47455698742573    1.12805550462582
H           0.59554958636950   -1.27292292784300    1.28519758095838
H           2.02271519738502   -0.11804053525662    0.84419907694407
H           1.10803817724467    1.01715741841993    0.33583178488477
O          -2.24917634074664   -1.18598101082279    0.84033811025115
H          -1.50995763094720   -1.80966920918853    0.98091511966659
H          -1.75763662785418    0.00051441209454    1.67056156118359
H          -2.06272331672965   -0.77495583207749   -0.02823093909700
N          -1.24731737872340    0.90290716709310    1.99468885837205
H          -1.41280663383918    1.60219234560956    1.21094129689331
H          -0.23056591123536    0.71933168904885    1.99988421454578
H          -1.57455074351546    1.24781187113672    2.89021398464989
