    26
        -50.45023508  Gyration_radius:  2.51119384159 Dipole_moment: 0.846
 S           0.33298745984627   -0.40975433073548   -1.97591579632473
O           1.35876483961770    0.51972193925262   -1.49302294393051
O           0.58294623584110   -1.75724388865867   -1.51429011069977
O          -1.00051414892832    0.07789848509165   -1.70224183638097
O           0.48388060695891   -0.44591386509049   -3.55043918838170
H           1.24608739960452   -1.00834924248016   -3.63080878184645
O           0.47628620991262   -0.68619319746518    2.24383969766490
H           0.84029957848793   -1.14115708501112    3.00491951856148
O           1.34353356056766    2.86019378798152    0.92099817057761
H           1.52441018219497    3.20538662562086    0.04379465120551
H           0.38824222080448    2.50359680614501    0.88734349279247
O          -2.80182594674027   -1.23831076521138   -0.24679398285401
H          -3.36519866417804   -1.73169328816357   -0.84466039834332
H          -2.20040359246497   -0.71188884315739   -0.81432530944536
O          -0.60016977284680   -2.45122180299159    0.74933056228897
H          -0.10940068564807   -2.33961760969692   -0.09217041674149
H           0.03385927529489   -1.40526760850488    1.67530531130449
H          -1.50210386379074   -2.13028425187778    0.54836380003964
O           2.20885693022719    0.51261170336606    0.83021794028372
H           1.52912424473692   -0.00550036757910    1.41277281320606
H           1.90808805656781    0.39813099273071   -0.16734960624711
H           1.97564718196346    1.52895850252846    0.97841916506226
N          -0.94566228643161    1.63821766939143    0.71854333909375
H          -1.82581248858467    2.12979250246080    0.80770988716076
H          -0.94317622547806    0.89589590243344    1.40990298316550
H          -0.93874631752611    1.19199125962923   -0.19944294121063
