    26
        -50.45346051  Gyration_radius:  2.47952600143 Dipole_moment: 3.241
 S           0.95606360449127    1.81014592555965   -0.41988693547265
O           0.62380664388153    1.40284790302269    0.94089134955852
O           2.36013514432534    1.82324716396726   -0.71109457671442
O           0.15899936020915    1.05617864637041   -1.38642577581395
O           0.44842405023217    3.31387287834261   -0.53112726982498
H           1.00388686088639    3.67702635940468   -1.21298586165580
O          -1.01862175737495   -1.66861172756987    1.57236975357590
H          -0.46533922163256   -1.82869478741310    2.33768919968446
O          -2.19166180907837   -1.95803017674591   -1.14076074288809
H          -2.36062025234834   -2.29448340761915   -0.25589893547042
H          -1.23368675514743   -2.01220030549852   -1.26343448808288
O          -2.40776035159059    0.70877888223117   -1.02341857401475
H          -1.50808623682641    0.94680332458664   -1.34879527297889
H          -2.49742087569149   -0.25724347110930   -1.20325379830762
O          -1.74352659364194    0.77870065486624    1.36196499210069
H          -0.77381689637419    1.15143535074617    1.24237568983022
H          -2.15603947248139    0.80193861057518    0.35199961556421
H          -1.57820804440704   -0.20903729742937    1.55292860047315
O           0.50587045238754   -1.42526817017861   -0.51799967180229
H           1.43650587935182   -1.37267587949411   -0.18097913245460
H          -0.39873260376016   -1.61851194873754    0.78245058410273
H           0.37044333313315   -0.54559984950047   -0.92688100974996
N           2.90306928159650   -0.73922884751625    0.42569048139679
H           2.82015976623782    0.18805190993334    0.00618734809529
H           3.78577026374664   -1.13239962028169    0.12162353470032
H           2.96038623988338   -0.59704212051321    1.42677088614006
