    26
        -50.45346052  Gyration_radius:  2.47955796163 Dipole_moment: 3.243
 S          -1.41037357776073    1.04593137546069    1.13351870658590
O          -1.08857054960444   -0.35373186362423    1.38943722595541
O          -0.97414505794257    1.95342264579936    2.15460005265323
O          -0.99057003735516    1.42696623344132   -0.21434834598612
O          -3.00037459496444    1.10230418878472    1.11563905555219
H          -3.18472028163858    2.00395682970757    1.35738029441860
O           1.29413562522259   -2.06769773813463   -0.58893567484397
H           1.65235789368553   -2.50341379638136    0.18518082729424
O          -1.49092423605980   -0.12552017135291   -2.25875059469047
H          -0.61389528232495   -0.13520427112451   -2.71094830761829
H          -1.43167202018967    0.60736501779137   -1.60195970327774
O           1.09354478373582   -0.27039998070751   -2.94450087134516
H           1.38470157455455   -1.16839962757367   -2.76134043499421
H           1.45484368973246    0.27332133351381   -2.23068698108963
O           1.49457863824814    0.50293969539182   -0.26345529815652
H           0.60616878408790    0.91320888905003   -0.30510325273525
H           1.76099198348521    0.64599347612595    0.68040532441601
H           1.42366966854512   -1.08167064721064   -0.44229245649044
O          -1.26134173907246   -1.90067317898697   -0.54665454916116
H          -1.45143647822217   -1.20259013277557   -1.36403445313303
H          -0.26833463737299   -2.12010440023041   -0.61753275897551
H          -1.29944235654895   -1.29835315619448    0.30730490645072
N           1.66239693725206    0.87757949870775    2.37088779625000
H           1.58068335886025    0.04529044987771    2.94208875075446
H           0.74547632352262    1.32679388258134    2.38154624143004
H           2.31225158812239    1.50268545805549    2.83255450073772
