    26
        -50.46281203  Gyration_radius:  2.46846591716 Dipole_moment: 1.921
 S           0.34185001111851   -1.36473169342115   -1.60781547196662
O           0.84143191650080   -1.94429517521255   -0.36701119588235
O          -0.86847242090265   -0.58600098955469   -1.38254566391689
O           1.35629577304700   -0.62862945164588   -2.33099775540245
O          -0.07530295234196   -2.57411021194865   -2.54066867050849
H          -0.83095292513580   -2.96955929944524   -2.11455712609161
O          -0.92134073722081    1.90602529841718    1.34552594497111
H          -1.44105616393940    1.48912535213922    2.03705630001721
O          -1.46225792149891   -1.87893340523984    0.90828225332218
H          -0.56995457871525   -2.14341724240910    0.61195650138145
H          -1.72783230487849   -1.25570239178146    0.21654976858717
O          -0.55971338298440   -0.47748717812238    2.99570155071451
H          -0.50672201822171   -1.05130171424087    3.76022158677323
H          -0.99549439096470   -1.00751260995799    2.28519856702586
O           1.35191785591178    0.18826530110636    1.15420411527742
H          -0.10566312120686    1.38290891540334    1.30508695449533
H           0.91758660482067   -0.04676701007620    1.99501938163909
H           1.27333334589790   -0.62032103751091    0.60663295030643
O          -1.03354210541172    2.07943522157095   -1.33177552423579
H          -1.15825550866849    1.12315323110458   -1.49974070845520
H          -1.24723963635243    2.19270122005056   -0.38486356632753
H           0.49194473143703    2.01558704825353   -1.25450960768940
N           1.51370465004178    1.66790249144004   -1.13072825568400
H           1.56982877756645    0.78322452914214   -1.71807463191078
H           1.63961782120717    1.36560699949686   -0.15092492317900
H           2.20628869085688    2.35483382249674   -1.40722279332016
