    26
        -50.45345970  Gyration_radius:  2.47920052588 Dipole_moment: 3.265
 S           0.62849895329551   -1.53293013709967    1.27510129384157
O           0.60645129587898   -2.89380793413993    0.82329862996185
O           1.57113291689606   -0.67428497118780    0.56613285860937
O          -0.69118110621947   -0.90559542216272    1.32726003941468
O           1.14849090249482   -1.55667617136760    2.77870976368847
H           0.82884964509125   -2.39270314048631    3.10163263993974
O           0.41938676550445    1.91982186279971   -1.56003815239516
H           1.09609148587284    1.72258065400190   -2.20852180952773
O          -2.25967206608674    2.17793927393824   -0.31198756169418
H          -1.67214746082036    2.71440378758737   -0.85218121918292
H          -2.24120922376972    1.29360395426190   -0.70335416440247
O          -0.94713395783693    1.62000951406703    1.95435183757925
H          -0.97545040250105    0.63567755052772    1.90571088337629
H          -1.56871977290258    1.92872191030115    1.25284961195577
O           1.26616567974078    1.77453914094066    0.85344592782366
H           0.33211525315929    1.81125337282647    1.41758107358645
H           1.49127689313209    0.75416974121372    0.81282215418144
H           0.99742469436392    1.98079188752081   -0.10773415588992
O          -1.03735968020303   -0.20259420488746   -1.20615242946814
H          -0.14368459642872    1.09085196848896   -1.47910839876762
H          -0.56529452454491   -0.94309523664714   -1.66568721064326
H          -1.00573886425952   -0.47311029638623   -0.26532125116252
N           0.50462595143612   -2.24418926412324   -1.95592783276638
H           0.21616906666594   -3.01855018124671   -2.54184747922761
H           0.54837901410241   -2.58650552805855   -0.99500436998052
H           1.45253313793598   -2.00032214068491   -2.21603067885146
