    26
        -50.45345973  Gyration_radius:  2.47892424734 Dipole_moment: 3.260
 S           1.61380994226810    0.36918485805543   -1.27654096355296
O           2.34659512792862    1.59719211015296   -1.16906552469916
O           1.72402340071897   -0.50602247654882   -0.11455593108122
O           0.21093055356515    0.54838955214853   -1.64756343469186
O           2.26814873166733   -0.45365244386408   -2.47077776174275
H           2.56725329567089    0.22907034537910   -3.06218634242504
O          -1.07058311197615   -1.09736621521668    1.98564836702261
H          -0.52246358421308   -1.04822766861355    2.76957774723128
O          -1.41357107374981   -1.49773316929792   -1.75987356479827
H          -0.85036020871490   -0.70865277734318   -1.93915243402773
H          -2.19528723984768   -1.14786262851757   -1.26972494366760
O          -3.12998936665425   -0.38826857368394   -0.02952902404488
H          -3.07763081362419   -0.89805535089736    0.78419742949147
H          -2.64363561327438    0.43004363082728    0.14181682704420
O           0.05522766603179   -2.33906280830122    0.04854280202436
H           0.83979017560677   -1.65570623815157   -0.05750373987256
H          -0.42901728184853   -1.99356594705770    0.87626683046973
H          -0.61020636333815   -2.10044216767169   -0.78295269422844
O          -0.87768559697464    1.14939376769471    0.69463550560899
H          -0.99968395572924   -0.20112841518897    1.53564978269446
H          -0.13303517634884    1.64878320662465    1.11708908014032
H          -0.54383411971974    0.98344284566379   -0.21109923743836
N           1.44410741018194    2.20470424836472    1.47155584226499
H           1.83334844114107    2.08194561061087    0.53567974728806
H           1.99765072686578    1.62406507466366    2.08969670701592
H           1.59609802439502    3.16953163017107    1.74016894797593
