    26
        -50.46281241  Gyration_radius:  2.46845380127 Dipole_moment: 1.929
 S          -0.41441990829275   -1.08208203780646   -1.79482023063262
O           0.25755744196927   -1.60099350905171   -0.61123131982913
O          -1.57693828710496   -0.27801533597111   -1.43798669033744
O           0.48640661211122   -0.39689922005163   -2.69645212741371
O          -0.95723710224235   -2.34123876027486   -2.58645348676003
H          -1.45138099265696   -2.84554768396552   -1.94579771290288
O           1.06540406719451    0.70646406407244    2.15967111398432
H           0.41041119228268    0.50703928197558    2.83294671448009
O          -1.84354690785986    0.93670684308968    2.28694877444692
H          -2.72308231294937    1.15742290156992    2.59407282891936
H          -1.91067511936099    0.03463100949326    1.89000697495720
O          -1.94006294014299   -1.36387870808940    0.93376499743661
H          -2.10191463228873   -0.93118929824713    0.07309274065751
H          -1.03497624434112   -1.69092529558622    0.82760577803711
O          -0.53244015801377    1.70497800176502    0.01182105546405
H           0.55884462088285    1.11458270857590    1.44042281648388
H          -0.95320025027385    1.05718711938116   -0.59065440551861
H          -1.11132554692163    1.71578555411708    0.79660332608271
O           2.55122082978074   -0.69857043771264    0.41902529710370
H           2.19957024243510   -0.33056434944576    1.25332060957639
H           1.81962429356321   -1.24176526576317    0.06162976109826
H           2.31838534128312    0.49023730956404   -0.51480668879557
N           1.86338657094623    1.20819071848689   -1.19087496196191
H           1.38501584169418    0.61460593559667   -1.93218756908756
H           2.53040874241994    1.85749126946234   -1.59276134595674
H           1.10496459587970    1.69634717487499   -0.68690623953968
