    26
        -50.45345984  Gyration_radius:  2.47915501282 Dipole_moment: 3.260
 S          -0.88797929864897    0.69524638689693   -1.76030593758054
O          -1.87314578166126   -0.10388601464876   -2.42921023500908
O          -1.29000248359522    1.17544871555620   -0.44267270654574
O           0.43300220193271    0.07210978946775   -1.69352936592157
O          -0.69400741834796    2.01134210929667   -2.63306825571340
H          -0.85458844532538    1.70503842092153   -3.51952548813014
O           0.28497904879278   -0.03848691041499    2.49225182490388
H          -0.55279947063402   -0.07719220967341    2.95479451132028
O           2.78188865899932   -0.92912077754036    1.16027549636610
H           2.08221292159868   -1.49050338795343    0.79861888064999
H           2.49439370473953   -0.69228892060678    2.04683885454694
O           2.38776980702712    1.21903735107013   -0.38908664825864
H           2.74237230764361    0.45894314594796    0.13081845418986
H           1.78941027237615    0.81321235962309   -1.05939327149226
O           0.14126959830988   -1.55022235946946    0.38385743356151
H           0.31147910959086   -1.01600714224011   -0.41924943475787
H           0.20299884419863   -0.66208870000379    1.70787840180169
H          -0.81280331457739   -1.80020733769275    0.28566631985312
O           0.52301175443232    2.04270793016412    1.01770036360222
H          -0.27077862449975    1.79846495663593    0.38227283552253
H           0.47099577312511    1.31329285881866    1.72762404154783
H           1.40977513229824    1.79659381098101    0.43039365257846
N          -2.46039830339723   -1.74301003006483   -0.16572283244395
H          -2.95363466218110   -2.59595974383107   -0.40089087918684
H          -2.33491304254862   -1.21322667703718   -1.02947994262583
H          -3.07050829964287   -1.18923760421247    0.42314392723706
