    26
        -50.45346049  Gyration_radius:  2.47968778208 Dipole_moment: 3.245
 S           0.45412416617445   -1.96053191297981    0.56400363608539
O          -0.47574824970412   -1.12828651000727    1.31960706263952
O          -0.15622859500030   -3.06014060058351   -0.12510076663795
O           1.30574060064440   -1.12980862976641   -0.28607022116290
O           1.42517886003621   -2.58509551871366    1.65873008207595
H           1.72306431900136   -3.38905134970158    1.24585484806485
O          -1.17688099349900    2.19338637752761    0.31794059723664
H          -2.10565972969088    2.07943298405039    0.52241111188847
O           1.31411018439752    2.57805906524214   -1.25186915394809
H           0.65412086789888    3.13068118768565   -0.82322129327752
H           0.81842099100366    1.88764312502292   -1.71367541976602
O           2.41393068745656    1.04656843653605    0.64983358259456
H           2.21058513233550    1.68993042236794   -0.07021275386863
H           2.21156859965104    0.16126739553397    0.26605921171930
O          -0.49401435716880    0.42486774199336   -1.45975126790457
H          -1.25610246699357   -0.20419846612272   -1.53656015761822
H          -0.96127596131260    1.52011689990295   -0.39675276632324
H           0.22288434990207   -0.14124141113385   -1.10647414466127
O           0.36578340180698    1.09445512932985    2.04214314475127
H          -0.25723516713894    1.65599021055579    1.46275990816323
H           0.02998183941355    0.12130498338722    1.85800110580735
H           1.33093120187030    1.13555251669920    1.53435528067588
N          -2.29181663509714   -1.53235296174816   -1.24753446368788
H          -1.57942831437721   -2.16933356969706   -0.88774638352088
H          -2.74730011937417   -1.99425529815749   -2.02557759349286
H          -2.97873459223267   -1.42496025722166   -0.51115318582753
