    26
        -50.47126132  Gyration_radius:  2.42919680985 Dipole_moment: 4.304
 S          -0.89985072357549    1.37850566970885   -0.97015667429910
O          -0.30742930642903    0.27551366283500   -1.71956026682684
O          -2.32335204531251    1.16370232686109   -0.75505063983999
O          -0.17592239732530    1.66408076402776    0.24803055712622
O          -0.78086933210552    2.66158291341803   -1.88288588251540
H          -1.46071353313582    2.50789648313807   -2.53030432174986
O           1.48712158995277   -1.33912576000636    1.49367146057063
H           2.20904480013460   -1.80133109503394    1.92037050254090
O          -0.38063789289974   -2.03604434684667   -0.38353161626928
H           0.35428650071248   -1.93261710705143    0.25026606656623
H          -0.30614431594608   -1.27626289077072   -0.99709208829453
O           2.27983280685921    0.17271655801388   -2.32691264248278
H           1.31262572664271    0.26561550074409   -2.20715119140640
H           2.42166604031324   -0.70710568318681   -2.68031022587527
O           2.37360904250621    0.79141586057730    0.32023870377320
H           1.89359822484711   -0.53502496559365    1.04725968439852
H           2.56864349198392    0.61589357678269   -0.61947988147839
H           1.53069451793724    1.28184953677801    0.31242450295261
O          -0.49620762590116    0.24954894416032    2.53604508868603
H          -0.34816422636575    0.97576171471242    1.90305600886820
H          -1.69352328064877   -0.42505321228708    1.74855248613461
H           0.24971109080357   -0.36020900410729    2.38122236858714
N          -2.27662269387275   -0.82069264918349    0.94605594414855
H          -1.63727128226084   -1.49722389820606    0.42416650107270
H          -2.45693853884799   -0.01942666634071    0.28020968228800
H          -3.13718663806599   -1.25396624314023    1.26086585332246
