    26
        -50.46061522  Gyration_radius:  2.54385431443 Dipole_moment: 5.981
 S           0.33776919189894   -0.35070371189946    0.11085859329782
O           1.05076192508835   -0.94362625087933    1.21296406274174
O           0.10386071487086    1.09465935036735    0.32998669496016
O           0.97026882520038   -0.55301948986079   -1.18690156836394
O          -1.06176511124199   -1.00644391073467   -0.01729003800058
O           0.01232961594379   -2.84361988903410    2.75918544016590
H           0.51314956038097   -2.18657529779155    2.23222186655843
H           0.12629484614458   -3.68502947619453    2.31555182676305
O          -1.16729747400724   -0.13063421869102   -2.63606150346053
H          -1.88060026520661   -0.53072212283894   -2.13038432974554
H          -0.34397024433614   -0.46090270853769   -2.20485036837939
O          -0.25547936535990    0.85693143834327    2.97214754287315
H          -0.11829355786833    1.12097495429512    2.04459653163742
H           0.50303265270358    0.30557230671636    3.18578294286545
O          -0.41400204644228    2.16995444522953   -1.83802051317402
H          -0.88385833854199    1.37789446504947   -2.27258285408991
H          -0.25693343043825    1.82270185548183   -0.85856132089102
H           0.60516317505794    2.09781259886244   -2.23781444758967
O          -1.97200193053354   -1.07584606549124    2.32470394793361
H          -1.46335049899609   -1.83966804819638    2.66418843463075
H          -1.52852135856647   -0.28710410748270    2.71476466284436
H          -1.49293525564656   -1.03496599347174    0.92177204805882
N           1.93215297633478    1.65400507123576   -2.57578365397913
H           2.69122770220859    2.17908001762495   -2.16233029534555
H           2.12633012276933    1.50816901693672   -3.55783266757693
H           1.86666759858028    0.74110579095837   -2.11031103473275
