    26
        -50.44895806  Gyration_radius:  2.52221591776 Dipole_moment: 2.911
 S           1.22607832863321    1.96461938533911   -0.45568352125057
O           1.30004089629719    1.72721885605710   -1.88370988268252
O          -0.15826238666081    1.86362624109192    0.02713245202279
O           2.10948688918053    1.16337718390478    0.35116250801674
O           1.65087404328166    3.48086236310723   -0.26137011653229
H           1.41631921472060    3.85346718211715   -1.10477911776191
O           0.43696527983185   -1.70347854694278    1.83360379737599
H           1.01684312680065   -1.91027300232825    2.56843901558966
O           0.32006499602368   -0.64748823198846   -2.29399700806472
H           0.63117803162207    0.28189343208328   -2.15790294040261
H           0.54385704659284   -0.86292818583982   -3.20146041703033
O          -2.82330032799305    0.35006121439974    0.92748576566967
H          -2.71910574250011    1.10743282125920    0.34437255072005
H          -2.52150850292056   -0.45193931403093    0.38771334025844
O          -0.62409231036743    0.60802263583172    2.09436212405174
H          -0.28557716326066    1.19210026821887    1.28190835437728
H          -1.62046987296968    0.47289481394657    1.78499393761953
H          -0.17498969228398   -0.31370047475430    2.01347704851469
O           1.94729864001077   -1.40097494220924   -0.22566722188726
H           1.39422785599551   -1.32449006271191   -1.02388581690292
H           2.20463705232249   -0.47744977161789   -0.01826154607489
H           1.03688949126254   -1.64272117402864    1.02230695302305
N          -1.73405849643077   -1.64012239622005   -0.38477473187374
H          -2.30601407860813   -2.34019486734620   -0.83898146180162
H          -1.15216993111658   -2.10990659229132    0.29982010902045
H          -1.11521240743607   -1.23990882508839   -1.08630417394354
