    26
        -50.45346052  Gyration_radius:  2.47975847085 Dipole_moment: 3.243
 S           0.75178605480813    1.10726607591965    1.60545923823284
O          -0.65553238006920    0.73574331775289    1.50787139245815
O           1.47183191898224    0.44285320923097    2.65262574530840
O           1.39504589176333    1.01512061652262    0.29560697135248
O           0.74039995047247    2.65690116719900    1.96570649208398
H           1.57329376260343    2.77900901706736    2.40943574158983
O          -1.86064119800390   -1.12175857584333   -1.25566240767264
H          -2.41662737785787   -1.65138801507224   -0.68311563305423
O           0.33369459498087   -0.37600654494904   -3.11212566668985
H           0.75084272989955   -0.89325869696557   -2.40919489217019
H          -0.56851790111948   -0.70255214336703   -3.17606426977116
O           0.23048893670694    1.97788799678824   -1.83930211591658
H           0.34511556435487    1.23052137231902   -2.47331666495627
H           0.83000443541353    1.76758840587201   -1.08547144358839
O           0.61019041084444   -1.39115873542180   -0.49633035537303
H          -0.91457898409988   -1.28151985421594   -0.95578320843820
H           0.98040881520946   -0.51737130052348   -0.25409835059166
H           0.58602947006589   -1.87033820446182    0.37101478333614
O          -1.82000519897918    1.35338572239997   -0.59773965480621
H          -0.99168342862303    1.72957913053858   -1.20045712709065
H          -1.97724411477140    0.40434675549011   -0.93482172595465
H          -1.38974624373325    1.19172899158342    0.34166331522188
N           0.49210131585913   -2.17046091395354    2.05048421349946
H           0.89072852592500   -1.28176099461398    2.35717649717554
H           1.04773291396173   -2.91086916163175    2.46197153450032
H          -0.43511845459493   -2.22348862766179    2.45446758131935
