    26
        -50.44895801  Gyration_radius:  2.52209159279 Dipole_moment: 2.911
 S          -2.02712931863455    0.52111813654649    1.09004592209671
O          -2.65228467684276    1.08655092108116   -0.08913292241962
O          -1.47582499767884   -0.81202170211378    0.80944347513736
O          -1.04508708085427    1.35687522312334    1.73073223264272
O          -3.20930214700436    0.29994383091373    2.12481257307809
H          -3.95553393927733    0.20069329669737    1.54297757170237
O           2.35984073815565    0.46273723466106    0.81984238765929
H           2.86229553436135    0.83748211519472    1.54518053311220
O          -0.81558593827432    1.18295450785162   -1.92902375116814
H          -1.53801934195127    1.08806112307767   -1.25960955727246
H          -1.18489510626004    1.72261651948587   -2.63071991333224
O           0.63787634106556   -2.90208805334161   -0.35697277326230
H          -0.32207238389545   -2.90975412811958   -0.41147771052020
H           0.94146226437191   -2.19184025290020   -1.01185587656038
O           0.77871987418482   -1.37847276316880    1.62377825953254
H          -0.20295036834562   -1.04996232501062    1.41355907958421
H           0.85401191886495   -2.12588909845382    0.88726957466401
H           1.41872719478247   -0.62791805587549    1.33220944582580
O           0.73609924376503    2.29477681846227    0.03290437380127
H           0.06648031788568    2.13353727928177    0.73132405176457
H           1.76682719132538    1.20988782214885    0.48501851427696
H           0.30079199650312    2.00857724730259   -0.79020546822907
N           1.35876627755236   -0.84439421679180   -1.81164828433387
H           1.75147970420691   -0.97081227997951   -2.73541947602910
H           2.04565498190029   -0.35916723346074   -1.24531492987649
H           0.54965170008121   -0.23349199660819   -1.89771731186954
