    26
        -50.45091244  Gyration_radius:  2.45447544168 Dipole_moment: 4.328
 S          -0.80966955321197   -1.45931805821933   -0.82464113547275
O          -1.88361510906612   -0.85949291856192   -1.57189279494345
O           0.52521025742940   -1.12837042461678   -1.26337107117640
O          -0.93181333305603   -1.23360647290899    0.62760491169949
O          -0.96840384068582   -3.02961563866594   -1.02163569250936
H          -1.87351597254315   -3.10013214311014   -1.30601671253557
O           1.00627288873262    1.99760569823598    0.27417108873747
H           0.92207412640804    2.81553037931060    0.76673400939172
O           2.86787721808519   -1.38663081526669    0.04027184992565
H           3.08981497192981   -0.61730094421277   -0.54307520981297
H           2.21094347382854   -1.86723799055792   -0.48647287231398
O           2.60619844883368    0.65534385031365   -1.60971286674751
H           1.83549863992232    0.12940939518626   -1.87127420785557
H           2.24338117903080    1.37766990227714   -1.08064547269368
O          -1.32348427672497    1.60647664882011   -0.70326604157147
H          -1.51188442775466    0.77492700785308   -1.17565022390254
H          -1.87117367204412    1.55359626498805    0.11204146730402
H           0.11691217744699    1.85801980998127   -0.19153899314667
O           1.17863891950077   -0.24761615021642    1.49650938630650
H           1.95377565388989   -0.76113302343854    0.97264109160475
H           1.14834673376976    0.68420154294264    1.07909986588527
H           0.28508692373412   -0.70473794394363    1.18520943904350
N          -2.60737384024746    0.92980395568544    1.60352615371619
H          -2.16110981321810    0.02936349921171    1.43631610545999
H          -3.60446589404486    0.80178459419605    1.48479277510598
H          -2.44352189975344    1.18145997442664    2.57027515084430
