    26
        -50.44895801  Gyration_radius:  2.5220736727 Dipole_moment: 2.912
 S          -0.58837422667442    2.19081581158612   -0.65190523717604
O           0.21706209907223    1.78135428637273    0.50712138453515
O           0.19856212201130    2.16823235390930   -1.86890117688517
O          -1.82540742394612    1.45553951950875   -0.70100027208506
O          -0.95272839147414    3.71710077514525   -0.41800924087444
H          -0.23758641314841    4.15477692054342   -0.86768317089197
O          -1.54790023983068   -1.83964761980425    0.82543913175235
H          -2.46321919820651   -2.04395009889576    1.02405691888103
O           1.70909379298556   -0.27188112961528    2.44179795633883
H           1.74906688463714   -0.92812406994486    1.67156988682186
H           2.01862874786150    0.56502192058032    2.08357250744558
O           1.08707690680017   -0.26308151111779   -2.12849275668144
H           0.81170199173130    0.67909215088950   -2.00419023087728
H           1.44346263558569   -0.31141680088081   -3.01767855822512
O          -0.73061739896112    0.19678370549650    2.13734659383551
H           0.24133719830624   -0.06370863803457    2.44414646919048
H          -0.47709557471614    0.93492987129157    1.42545633226440
H          -1.09087811697431   -0.61449550114274    1.61776262823024
O          -1.49716201114449   -0.99671922481395   -1.60307101997005
H          -0.57188015094897   -0.90945977088861   -1.89489380425239
H          -1.53550061375863   -1.56348917858036   -0.14709113952683
H          -1.77365818570452   -0.07945904745066   -1.39238399419969
N           1.51927601906469   -1.84515625809746    0.35405463749815
H           2.20871804737766   -2.56445959113529    0.17845689685712
H           1.47075210662037   -1.25167006219397   -0.47099771077546
H           0.61726940342210   -2.29692885263357    0.45551698883450
