    26
        -50.45091276  Gyration_radius:  2.45441423228 Dipole_moment: 4.321
 S           1.85052261414547    0.19500288235234    0.03801206177625
O           1.18952059020493    0.01818956565684    1.30892521695957
O           2.32274024320597   -1.00639724873590   -0.59833502934828
O           1.01298687413951    1.01900496738365   -0.85358849047738
O           3.14630418041243    1.07137034873837    0.32659238751622
H           3.77725745087614    0.69162691914000   -0.27582939581418
O          -2.04739329769766   -0.88985223200475    0.29849557493573
H          -2.84033909856180   -1.12003430238775   -0.18830225046394
O          -0.42388656304650    1.71217543429455    2.65775660689681
H           0.50867177790389    1.51327672580178    2.48630912632701
H          -0.77503774998951    0.84307125473715    2.98003429458455
O          -0.90371414735196   -0.87229452206842    2.86763646609791
H          -0.02454114748195   -0.90058454016650    2.46073996683815
H          -1.51395295354502   -1.08645993869699    2.14989464776761
O          -1.14988520730324    1.51024271304512    0.26863699035453
H          -1.58743338365826    0.58739050478041    0.26916259421660
H          -0.89385400927041    1.69555360677167    1.28741608104379
H          -0.23371549513637    1.36754446391509   -0.22675773248603
O          -0.14724730209485   -1.91503905646665   -1.07087507311645
H          -0.26064920589121   -1.45736114030918   -1.93410565061073
H           0.77684587947121   -1.73306005251182   -0.81982051273897
H          -1.28186496706651   -1.35216225940404   -0.17843161018768
N          -0.22324607320833   -0.19618167770660   -3.18465114393313
H           0.40721783822456   -0.45176485899396   -3.93426816764259
H           0.29024060075651    0.40915794953727   -2.54604545294354
H          -0.97554743798283    0.34758449336678   -3.58860152548325
