    26
        -50.47126129  Gyration_radius:  2.42932892385 Dipole_moment: 4.309
 S          -0.66288715770436    1.49573790980625   -0.98876959850088
O          -0.24104527055840    0.30905307165523   -1.72566238743865
O          -2.10466229720418    1.50607928994194   -0.78891865609795
O           0.08372727309428    1.67359909113481    0.23623414494682
O          -0.33665100380471    2.73851488401521   -1.90654844916604
H          -1.02559412364963    2.68744984090610   -2.56052901555608
O           1.24285706927199   -1.54366299431821    1.51999238195585
H           1.87864772562818   -2.11016639372344    1.95781921649451
O          -0.68779637896476   -1.95355532816996   -0.37799661764861
H           0.04688313218316   -1.96123408510137    0.26441489027310
H          -0.48918928602149   -1.21887467166327   -0.99446940074913
O           2.30480034254681   -0.20424207750183   -2.29964310971857
H           1.36305468340937    0.04093412123780   -2.19279389872056
H           2.31022347494020   -1.09842484962210   -2.64518645997389
O           2.46412168415620    0.41319217705760    0.34489567628825
H           2.63990892970251    0.20193797190162   -0.59123458097432
H           1.70833976120472    1.02918849144634    0.32373718936428
H           1.77511666529919   -0.81628811235814    1.07422172297117
O          -0.47996814189999    0.34366587468975    2.52803664509707
H           0.16365394988014   -0.37590103531614    2.38659626971161
H          -0.21327475434681    1.03284857278712    1.89245714133701
H          -1.75842208284781   -0.14328321331225    1.72981520742309
N          -2.38680789724456   -0.44952390538945    0.92239287122896
H          -3.30766796601634   -0.74170266199358    1.22904401146417
H          -1.85444650635886   -1.22068368223504    0.41185796750324
H          -2.43292183468173    0.36534173413017    0.25023681849517
