    26
        -50.45090517  Gyration_radius:  2.46084404179 Dipole_moment: 4.282
 S           0.29719626933913    1.81371593681138   -0.39364364806693
O           0.75540154299950    0.91575195398868   -1.42799930586956
O          -1.06825039307231    2.25625667480504   -0.51395428215535
O           0.59246944630942    1.24151913895085    0.93267372139392
O           1.18504638408577    3.12620267343021   -0.49822964366881
H           0.52940696480031    3.80154975954810   -0.36209310773301
O          -0.78080135180645   -2.09752133476990   -0.20532876230349
H          -1.22654064785668   -2.80673044236447    0.26038348829735
O           2.69972786016033   -0.93758381544527   -1.43405250353435
H           2.48946384108942   -0.00162212074411   -1.58089525624066
H           2.05417825692899   -1.39635224243716   -2.02832661529330
O           0.44813624964725   -1.53886707336635   -2.67119164314350
H          -0.11145594060010   -1.95838045221250   -2.00421074656568
H           0.32214829329215   -0.58699553917370   -2.53991056714810
O           1.39816750857812   -1.10027097148770    0.69663154614769
H           2.04157278173322   -1.08266755894129   -0.15718642382346
H           1.10821052030208   -0.10251945146721    0.84385717891427
H           0.54806635324503   -1.57152399239526    0.38127100239971
O          -2.24180141216429   -0.04186083861535    0.16715943286541
H          -1.91621132734632    0.79991328753065   -0.20521499615490
H          -1.38887925833020   -1.28581220645072   -0.13081142326976
H          -2.17878080307274    0.08117094139398    1.14125407606608
N          -1.54369545702190    0.48412871447993    2.74774098696212
H          -2.05945822799317    1.24349200389600    3.17423547765674
H          -0.70944960644777    0.88214325264882    2.31926566294165
H          -1.24386784681313   -0.13713629718562    3.48857636171305
