    26
        -50.45090593  Gyration_radius:  2.46040552773 Dipole_moment: 4.283
 S           0.83222750832521    1.57142912926604   -0.60425246908461
O           1.65021035990514    1.87146464918905    0.54261276461453
O           1.20607159137603    0.39007742874979   -1.34631406104441
O          -0.60489710297667    1.52366869409560   -0.27817530535482
O           1.00441408821773    2.80520505561269   -1.58952529438468
H           1.38949537044966    3.45174250674068   -1.00808881120637
O          -0.23083500112724   -2.07700662707313    0.82920663148698
H          -0.68528682295783   -2.59628738555462    1.49432010005369
O           1.53365733103278   -2.35753782409000   -1.34130003099951
H           1.05681985584175   -2.54825651876471   -0.52266398268663
H           1.80313496970984   -1.42993129143860   -1.26283882822724
O          -0.22903576458976   -1.22504377704136   -2.94471596104784
H           0.30436194350169   -0.41547655167059   -2.90591844049483
H           0.38013874165687   -1.90048860281799   -2.55320510820015
O           0.77487758169810   -0.10989965010249    2.10253995509493
H           0.24073066151932   -1.32835146765537    1.32979486439317
H           1.24303891760452    0.56505420392166    1.57512254199157
H          -0.02847530227088    0.35198048079143    2.43300010209575
O          -1.54507324760294   -0.69856807787014   -0.88244261552612
H          -1.20537655585844    0.26815991356140   -0.65452043383583
H          -1.08417775656311   -0.94624815686109   -1.81459246402307
H          -1.09151629786731   -1.29999409929494   -0.19201221640138
N          -1.50549399714104    1.33364257872328    2.47612093286334
H          -2.46844790812121    1.03535533455941    2.56845549372987
H          -1.35518875664745    1.60264872706204    1.50502564913356
H          -1.38537441720729    2.16266133785016    3.04436698664902
