    26
        -50.44895809  Gyration_radius:  2.52249542837 Dipole_moment: 2.916
 S          -0.02577650157309    1.70980492859393   -1.62828933089847
O           0.61583445276324    1.73922011152689   -0.30650999922235
O           0.77843732529906    0.97277685227746   -2.58283580684572
O          -1.39910370691823    1.29022972588657   -1.52171403537001
O          -0.02673406338532    3.20768523449475   -2.15124738351543
H           0.78892336532448    3.23875978327082   -2.64003430141547
O          -1.97170786863208   -0.90580398148943    1.32038622308839
H          -2.91613936690128   -0.81079897767310    1.45464779800287
O           1.50204255551935    0.55740651564847    2.52870393326898
H           1.41225349606781   -0.37394383092863    2.14112945432286
H           2.01838194915505    1.05477605747860    1.88803821751141
O           1.07421992964573   -1.42258758854680   -1.61245840391940
H           1.44232521664988   -1.94449926692133   -2.32806448519880
H           1.02586330602136   -0.49648271393152   -1.95759980372062
O          -0.74048070308225    1.30190846385054    1.70258609435008
H          -0.29212977408414    1.56375195526634    0.78267654089894
H          -1.26478696065247    0.43064448009363    1.54751909563618
H           0.12857783082518    1.02737589306570    2.22778981988823
O          -1.62885030200792   -1.31268095703161   -1.19522131339962
H          -0.69879432243890   -1.55145843158057   -1.35930260865014
H          -1.85653794698779   -1.12031630650944    0.33913169535142
H          -1.68694450767706   -0.36795099674075   -1.45271519971137
N           1.01976212739536   -1.73096485109361    1.34566107333985
H           0.03254198837944   -1.89796461501176    1.50537947913189
H           1.52262225071019   -2.56924351212593    1.60636136440231
H           1.14620021058894   -1.58964397181791    0.34598188265909
