    26
        -50.44895806  Gyration_radius:  2.52216374227 Dipole_moment: 2.908
 S           2.21533345645124    0.19806455990771   -0.78840802989554
O           1.90878082961526    1.25457971093867   -1.73220916510664
O           1.70927807241844    0.52241774205113    0.55264381682721
O           1.80455669690801   -1.12391020121013   -1.18468168881910
O           3.79757914726104    0.18792521021668   -0.67161866712093
H           4.01077548083232    1.08682863853007   -0.89896226493468
O          -1.32973336604988   -2.13584703730887    0.35063564968087
H          -1.28286852446574   -3.09078554522474    0.28060953306300
O          -0.51235398897008    0.84350704577472    2.82564902529272
H           0.19258299606731    1.44626550640958    2.57217465546886
H          -1.21149941169540    0.92156058661558    2.09723445088823
O          -0.67876331915369    1.52466842872339   -1.73258398145380
H           0.30866454537636    1.47752356040700   -1.69024224551787
H          -0.87706278707952    2.08606430161576   -2.48458041954924
O          -0.70965249562166   -1.20285869067691   -1.96416339236427
H          -0.87567019760482   -0.24315450371023   -1.98091048984286
H           0.26015813961217   -1.28022865101494   -1.83922270155153
H          -1.13904127456447   -1.78526531045479   -0.57810629890820
O           0.52791545137189   -1.21063588066119    1.84400763216685
H          -0.20265850524094   -1.61202407726693    1.24155583879518
H           1.12794212589979   -0.59000132369157    1.23505704689351
H           0.05573356285233   -0.46208482777112    2.41249984234114
N          -2.13543476636720    0.83301329952722    0.76759229981207
H          -1.61033324973214    1.16866552834964   -0.03669889911158
H          -3.01457620995009    1.33294716826492    0.79448586263677
H          -2.33965242817139   -0.14723520833532    0.60824259030205
