    26
        -50.46415479  Gyration_radius:  2.51995255426 Dipole_moment: 6.950
 S           0.03338485307480    0.57967104488438    0.05287820080380
O           0.04272343112529    1.19748524578997   -1.28586941131373
O          -1.42211281769585    0.09180471673227    0.24407810550851
O           0.90996268464322   -0.59209738125269    0.04418666375179
O           0.36951391151772    1.51438090936499    1.09891638345199
O           1.08687403098876   -0.72237734899949    2.69688347287554
H           1.27970220111704    0.20083003565385    2.88485937415471
H           1.14358068878965   -0.79550402509236    1.72527208648363
O          -1.46274804060045   -0.73107749436258   -2.41424507393280
H          -1.04182639905352    0.06854617594853   -2.04563565668075
H          -2.17861179256138   -0.92998575219874   -1.80593280639360
O          -1.30722930725975    2.09666852522443    3.07573901656216
H          -1.92301153450934    2.75571252375651    2.75274013988728
H          -0.62868890581177    1.99161167947657    2.37552358923085
O           0.77817348544654   -2.13927822223873   -2.07393334308593
H           0.84936467587246   -1.83215570499997   -1.14248250555280
H          -0.13975791478481   -1.89764542572919   -2.32877913177899
H           1.49198114402618   -0.95033386876917   -2.59637246442409
O          -1.57328596888668   -0.55134706064636    2.67182665276519
H          -0.63797421267939   -0.80774964265389    2.84507286452287
H          -1.65935528748771    0.34636689324635    3.05248234033641
H          -1.53432365046918   -0.21632847162236    1.22326145736299
N           1.83634587083944    0.08857193991070   -2.75889577974781
H           1.13698625157713    0.65500979139930   -2.15615509379217
H           1.77241842953971    0.36491031144677   -3.73349267297805
H           2.77791417324301    0.21431059572851   -2.40192642801640
