    26
        -50.45198894  Gyration_radius:  2.604461229 Dipole_moment: 2.750
 S           0.14959598923489   -0.58140305011514   -0.38562072995814
O          -0.08057789986690   -0.11801928027805   -1.82887263284978
O           0.52499254754492    0.55509068266189    0.42999053554559
O          -1.03927812301223   -1.25072001574628    0.09212773562161
O           1.30453071311223   -1.53778317638714   -0.50503117053077
O           1.90410881089271    0.01974902163167    2.64318624057682
H           1.34069966391505    0.32511633574938    1.90265761963376
H           2.69120889467093    0.56705591661844    2.62823980307822
O          -1.42203578874239    2.38494189471225   -0.17132445445869
H          -0.74242620974158    1.83990115978504    0.25673550891640
H          -0.95209285748141    2.82032377456151   -0.91441453337959
O          -0.67325777513818   -3.04498578189394    2.02085780146737
H          -1.03150797225126   -3.87366774587341    1.69754038000753
H          -0.93250643067394   -2.35919186031994    1.37078034149825
O          -2.49228216919286    0.42996249749221   -1.50577423004229
H          -1.10026607020318    0.10293456597159   -1.85439250343892
H          -2.61087827559999   -0.26012036145114   -0.84092248809704
H          -2.29584919207275    1.26891732574587   -0.99477278284907
O           1.86046446292307   -2.43520027237235    1.70796307494516
H           1.61304163298822   -1.98689612986487    0.48236915053068
H           1.98098447043844   -1.59413340504951    2.21956781373920
H           0.97437714595501   -2.78953052703345    1.98020931588520
N           0.10130699775264    2.92829144672683   -2.39017606651357
H           0.94895089596469    3.48014621900700   -2.35489131068956
H          -0.38672968962300    3.15956544884875   -3.24632070647990
H           0.36542621820710    1.94965529687137   -2.43971172216038
