    26
        -50.46061511  Gyration_radius:  2.54340561919 Dipole_moment: 5.990
 S          -0.21982782378582    0.41099655428947    0.18222396155136
O           1.14209782827532   -0.13599789504664   -0.01073441028274
O          -0.66599166148334    1.05850127985909   -1.04537494184608
O          -1.16107416614783   -0.80884645397297    0.35823045133106
O          -0.29203193867144    1.25006417687229    1.35077051124477
O           1.63832695569695   -0.40651680326512    2.60581379582264
H           1.63404886541073   -0.34048233556005    1.63389981302580
H           1.35002842263313    0.45808030880092    2.91279569733022
O          -1.16164285432992   -1.13505728609765   -2.38396375064179
H          -1.53175157164482   -1.73444882870293   -1.72944760496535
H          -1.16512222990290   -0.25390291028732   -1.94079368091804
O          -1.81585182818851    0.67623742118992    3.45453784494805
H          -2.70818513275576    0.96903506800887    3.26532266085089
H          -1.25657103531784    1.01283435661901    2.72356984682508
O           1.37721522025005   -0.91089886550445   -2.35006661243605
H           1.40419345439309    0.09473466064272   -2.79105032991575
H           1.38371662798366   -0.66803382213083   -1.32829684120841
H           0.41028032917212   -1.19508021501620   -2.49663352251267
O          -0.71406053060672   -1.65591214195573    2.68202895333985
H          -1.21699397174746   -0.98611017015862    3.18792104006986
H          -0.99612120633997   -1.21265315507399    1.29551262179723
H           0.22982170761956   -1.39482702909938    2.79101802331958
N           1.16889229557458    1.48136719858941   -3.08845701586260
H           1.94219457014163    2.10785007975434   -2.90856771402156
H           0.44727438606037    1.62865616140925   -2.37283694237067
H           0.77713527771148    1.69041066583479   -3.99742184446259
