    26
        -50.44895808  Gyration_radius:  2.52243620561 Dipole_moment: 2.915
 S          -1.00216608104033    2.13036883231854    0.17500375737319
O          -0.46314168194829    1.48900764481910   -1.03245113534383
O          -2.31740133011460    1.61368517630741    0.49768201265666
O          -0.04201782574997    2.09205390302242    1.24729474511364
O          -1.23226898822519    3.65443502578192   -0.20102107983658
H          -2.13489222368712    3.64178804733150   -0.50128059560357
O           2.20302146858336   -0.75826707813250    1.01193682950298
H           2.94663414168901   -0.46640072635791    1.54189254547812
O          -2.04918024664182   -0.95364681207869    0.82138299827790
H          -2.87415288200731   -1.24968246792177    1.21100760341051
H          -2.17537147761305    0.00967187081845    0.63389001549611
O           0.89786262596440   -0.85702388527305   -2.72409745971142
H           0.13140195836522   -0.31744818602196   -2.93840879988500
H           0.57996383959350   -1.51414001104458   -2.02221165958019
O           1.87738750753979    0.72205930973768   -1.04699212076479
H           2.02850962655116    0.15016947709102   -0.20558469013378
H           1.64944684609678    0.04598511275402   -1.81992092755076
H           0.92801744818166    1.17509931984017   -0.94948970810671
O           0.08780793721076   -0.27592142306207    2.39222103906549
H           1.38496675271248   -0.61456848636122    1.58831041260539
H           0.03391355555249    0.67389221816052    2.15318268337275
H          -0.68268186619454   -0.67985012908268    1.95394390608116
N           0.12379272828565   -2.31451676048282   -0.68783715114422
H           0.88824241166544   -2.25306442523567   -0.02464764622770
H          -0.10806715886404   -3.29234857859635   -0.80461559566882
H          -0.67962707590275   -1.85133697832868   -0.26918997886763
