    26
        -50.45090358  Gyration_radius:  2.46178595677 Dipole_moment: 4.280
 S          -1.55393779900173   -0.95671124813088    0.46497905325510
O          -1.69526274597436   -1.73873577263454   -0.73656479081481
O          -0.41802025393784   -1.28787505372148    1.29352949674503
O          -1.57516195451186    0.49371933377570    0.20125527980776
O          -2.85452847117376   -1.25292565053517    1.32578815439594
H          -3.41477254200399   -1.65722928964511    0.67236922350639
O           2.10743160280371    0.38371671603535   -0.67397584572114
H           2.65303415533424    0.89422697301497   -1.27414864469710
O           1.01239699053648    0.17776584806939    3.03012099653566
H           1.74672588839597   -0.37571649134093    2.66300877459317
H           0.24019591349864   -0.39927048174002    2.91739121437117
O           2.34248889890155   -1.45409147386661    1.43998522092730
H           1.43897169566216   -1.77366346991385    1.29604896937548
H           2.55202161957100   -0.93469579088808    0.65227983533374
O           0.54039493600355    1.54169002727369    0.98693195442524
H           1.21264125260350    1.15398596666402    0.32215505282571
H          -0.38586419562161    1.15399619886803    0.68326620535253
H           0.75594317827334    1.05892003086131    1.91705713539215
O           0.30401880569859   -0.66282109900624   -2.13870526672946
H          -0.18829022785574    0.12777444423793   -2.45603052771798
H           1.42642132683640   -0.10060157730523   -1.25450763055643
H          -0.36870798329175   -1.19708464366049   -1.67419987505601
N          -1.25549964791526    1.54352056887650   -2.48716223702225
H          -1.57922891140329    1.32496256016067   -1.54618115735301
H          -2.03701108648711    1.41264107107320   -3.11702782874578
H          -1.00640044483844    2.52450231335746   -2.50766278233004
