    26
        -50.44895805  Gyration_radius:  2.52236582641 Dipole_moment: 2.915
 S          -0.74271328195749   -1.25096914376904    1.85902459136826
O           0.56101886139634   -1.81623055471879    2.14514308948397
O          -0.67026151162154    0.21161394683573    1.73547738320414
O          -1.43307963106043   -1.82639636399318    0.73401488826007
O          -1.61692256448374   -1.54133177932777    3.15079368181468
H          -0.94750928743907   -1.59752940363610    3.82450432136964
O          -1.09594468030450    0.16930093563034   -2.28491247938971
H          -1.84625242706389   -0.12853388895900   -2.80194409829947
O           2.12682920167986   -1.10577649455219    0.19307266943226
H           2.92116053668934   -1.63310242886315    0.29770398244172
H           1.55901248930613   -1.32431332455472    0.97344588547370
O          -0.00813677460264    2.97928540318967    0.28148435808552
H           0.66092403796659    2.48765274703528   -0.29845497742377
H           0.18034186636170    2.70379844538876    1.18318466396699
O          -1.83876810305396    1.32195313348775   -0.12708681250979
H          -1.57107412677895    0.84562376916317   -0.99847644707903
H          -1.46451113009083    0.74242453157955    0.67275355862315
H          -1.19262541527071    2.14731237740303   -0.03785866289207
O           0.07983757051162   -1.94693661881792   -1.41803575984111
H          -0.61245874698899   -0.67086345700966   -1.99796447807387
H           0.92525510560960   -1.69912780914129   -1.00237406004578
H          -0.52995005659436   -2.09045744088363   -0.66323826069430
N           1.51652547439741    1.44917114893996   -1.20280960704714
H           0.90694034893819    1.12413608967617   -1.94493134507653
H           1.77256907995891    0.63894993879625   -0.64308879299353
H           2.35979313450016    1.81034625108548   -1.62942728213964
