    26
        -50.44895804  Gyration_radius:  2.52248618195 Dipole_moment: 2.916
 S          -0.12428833321633    2.34752810413583   -0.21916435339033
O          -1.10791069026806    2.51058892062668    0.83287945628624
O           1.01902333733653    1.54884795188097    0.24437049410756
O          -0.63159760632422    1.83951695623349   -1.46726440303306
O           0.43919438971331    3.80485457611793   -0.49451765662422
H           0.29396318193370    4.22650369759384    0.34580595522887
O          -0.05907467229936   -1.72976886718037   -1.85943244482459
H          -0.11993023821089   -1.83452082699581   -2.81039954165963
O          -1.84143292842146    0.11757545935462    1.54218623965413
H          -1.52042360878151    1.02879102345915    1.32838486505339
H          -2.61446839701844    0.24109880221742    2.09640315741288
O           2.56856370695178   -1.13190128879695    1.04004263922810
H           2.53179267259452   -0.28985658418275    1.50277724237795
H           1.67155322425761   -1.57207995192114    1.20499514101319
O           1.90853561284709   -0.23543962673103   -1.20190568051791
H           1.12002090357294   -0.82558940394716   -1.49817279004259
H           1.50015449448534    0.61157276455201   -0.72035402102683
H           2.32440762683660   -0.70893984794912   -0.35965075569546
O          -2.09336768467591   -0.32747650418545   -1.14702990018544
H          -1.69851067473294    0.53853975455784   -1.38424884177705
H          -0.89217730149129   -1.22594798302494   -1.58726857784652
H          -2.14896426278337   -0.30982807511289   -0.17465958602210
N           0.13326461078027   -2.08413473338712    1.21845664750525
H          -0.08815526159756   -2.83287377332190    1.86182331671258
H          -0.08501625502869   -2.40421655721422    0.28148968911019
H          -0.48515585645694   -1.30284398679843    1.42445369894775
