    26
        -50.46400433  Gyration_radius:  2.43654010017 Dipole_moment: 6.303
 S           0.17489085255080    0.32007385326185    2.22416337832853
O           0.53033659413348   -1.05561952715340    1.96689077636189
O           1.31443445395036    1.20058463354340    2.34277627932990
O          -0.82902297836398    0.82040300192397    1.28203651796649
O          -0.56873568793117    0.34796327187099    3.63070811236669
H           0.13170396610436    0.07715108188122    4.21431184374684
O           1.37228058982344   -1.18848131191171   -1.68058210310285
H           2.17371461613610   -1.49700050293635   -2.10483059160605
O          -2.20024992739673   -0.87181061056189   -0.20676173857286
H          -1.85327572328091   -0.26480489623330    0.48496833840779
H          -1.56526090635185   -0.28327939093243   -1.36124955368464
O          -0.22489639534256    2.38003553287237   -0.68258807724649
H          -0.56000487476698    3.25948923894437   -0.50382761257513
H          -0.43752667852758    1.83944791618425    0.12816413942005
O          -0.31723284719074   -2.66764384413023    0.04755086572058
H           0.00780992665702   -2.22533162378196    0.85937241134325
H          -1.65548790014182   -1.69775113907575   -0.09329240744739
H           0.31477384795067   -2.39680044673166   -0.63302715866375
O           2.05397110447797    0.80523514811167   -0.14163787642514
H           1.55462741647689    1.55623739404930   -0.48782865005561
H           1.91822451408387    0.85043853276641    0.82827074345397
H           1.66379300632066   -0.51725517971346   -1.00347808848533
N          -0.91384880355078    0.19491738391082   -2.13479196130030
H          -1.36107626473583    0.24002466247536   -3.04259762945414
H          -0.03978131907457   -0.36583223489808   -2.16435662726228
H          -0.68416060203830    1.13960903623876   -1.76836333056077
