    26
        -50.46061510  Gyration_radius:  2.54357388054 Dipole_moment: 5.994
 S           0.43224402707049   -0.05765313745494    0.24614839644642
O          -0.74535931220774   -0.04416464798212    1.25541211025096
O          -0.15407814014148   -0.37197124590881   -1.07627817132161
O           0.94323491098149    1.30772372392537    0.24329295730387
O           1.39922874699490   -1.04787265256350    0.64485386359500
O           1.09045011301767   -2.59824506851137    2.78493813180658
H           1.37610689000141   -2.10503833920782    3.55488633679805
H           1.33325784665770   -2.05484555277006    2.00643480752024
O          -0.13175294449684   -3.02202020984430   -0.69806086724072
H          -0.17691703960729   -2.09940053370832   -1.00741836149225
H           0.76596848714099   -3.12799227649925   -0.36977021208353
O          -1.38020471346549    2.50259004884970    0.39590574125744
H          -0.45456453093226    2.17702201367909    0.49597542731961
H          -1.89583866278110    1.94489026571044    0.98558912747144
O          -1.19228904570750    1.67337797969831   -2.00727830621679
H          -0.24327260341586    2.18259394152701   -2.22450130331233
H          -0.83546325052604    0.73485362860959   -1.69912992785208
H          -1.47664822360513    2.09467074144857   -1.12491129193142
O          -1.33105015348078   -2.46216231469382    1.61496769433071
H          -0.60132882977631   -2.70819314309717    2.21862076609598
H          -1.04301544939176   -1.02052857617745    1.41816406063098
H          -1.07325153367941   -2.84243586769431    0.74328591374307
N           1.10363704122305    2.68039408579493   -2.16712090814994
H           1.34214761558669    2.25550087568569   -1.26316345284001
H           1.21413470724947    3.68355959688135   -2.09756640274825
H           1.73462405730056    2.32534663430981   -2.87327611937729
