    26
        -50.46400353  Gyration_radius:  2.43638640502 Dipole_moment: 6.315
 S          -0.37785675173290   -0.16998222829483   -2.21417756459763
O           0.40583447766302    0.90964769862245   -2.76983168457414
O           0.40908457779411   -1.31642977430800   -1.82571198284189
O          -1.27516229857450    0.27465155777353   -1.14501975530283
O          -1.36179182165611   -0.65209369837020   -3.36809523830338
H          -0.74774150290095   -0.82201601469477   -4.07421433883279
O           1.96886327735999   -0.39930033762106    1.44557668509920
H           2.89395489785059   -0.39599263470604    1.69389212615892
O          -1.76106933984422   -1.31102724823032    0.90727958052424
H          -1.10631528652088   -0.33606060799911    1.74478114983670
H          -1.75306397026701   -0.81475671356224    0.05819683345547
O          -0.76700857882225    2.34298931192489    0.31068177675526
H          -0.97326674824337    1.59484816537887   -0.31600066003098
H          -1.37039309368256    3.04996457298964    0.07893312492789
O           0.47127795468931   -2.60480572299394    0.48452980765115
H          -1.03416887956092   -1.98293621198098    0.79757643915879
H           0.48345870752089   -2.29595842393226   -0.44531264951079
H           1.12057685945816   -2.03895430030163    0.92517599444370
O           1.71247740814254    1.28975407523162   -0.52717275768604
H           1.37815824795655    1.07516043067614   -1.42327553193659
H           1.09458025781234    1.95373149301620   -0.19441306225369
H           1.90845038298279    0.14670689930767    0.61369506676501
N          -0.48067878193866    0.45168062039944    2.23476557981317
H           0.50609510686461    0.14359085464198    2.13181780876557
H          -0.72914727967989    0.59446339271545    3.20637729228609
H          -0.61514781268165    1.31312483433042    1.66994598022930
