    26
        -50.46400431  Gyration_radius:  2.43649628117 Dipole_moment: 6.299
 S          -1.07270117024900    1.55570483013591   -1.22845046395515
O          -2.13924927801596    1.98826025177093   -0.35483418276975
O           0.21717238826015    2.10568390513082   -0.88371177580030
O          -1.03130415373683    0.10041354372909   -1.39063904850074
O          -1.42937192664420    2.09539383963055   -2.68224974407971
H          -1.50703988327146    3.02894061354877   -2.51787432007280
O           1.40297108601786    0.08165656370769    2.03575005083878
H           1.68002902474630    0.37800951667171    2.90343891435492
O           1.28660732323972   -1.13337225271415   -1.64385618889633
H           0.42945260292238   -0.66605464288464   -1.76386494425341
H           1.01061221400663   -1.79163077530426   -0.39049881411029
O          -1.92727909859003   -1.51446361702060    0.41108529134248
H          -2.73976148783543   -1.91657103925412    0.10149480997820
H          -1.65914606744780   -0.86559845571772   -0.29739494820293
O           2.50732098095924    0.85074146554144   -0.45751570395954
H           1.90929330210607   -0.41529591443480   -1.34609945610683
H           1.76635124189958    1.45216952602478   -0.68013783815091
H           2.36629151264157    0.64543139751607    0.47736623058551
O          -1.08129919028838    0.82399388395779    1.74311257311240
H          -1.56405565711797   -0.00360982369847    1.61883556486154
H           0.50184113998231    0.48114996247777    1.88659054807566
H          -1.42225737712855    1.41156062217136    1.03622320688288
N           0.70593473205427   -2.12983504621066    0.63170519433553
H           1.05197607077185   -3.05602677222906    0.85203828445407
H          -0.33202648691908   -2.09041985681476    0.64619146494997
H           1.06963817767783   -1.41623172574873    1.29329532510684
