    26
        -50.46133374  Gyration_radius:  2.45354909197 Dipole_moment: 4.916
 S          -0.22955165442933    2.06551535832091   -0.41752832169496
O           0.97126853209444    1.56615008928614   -1.05531757685251
O          -1.31543667809849    1.10829099420044   -0.42557995479148
O           0.04879344951798    2.57037609849714    0.92737939470992
O          -0.71923467373831    3.30685463320110   -1.26575188067341
H           0.05056524802989    3.86678828129932   -1.28826123894300
O          -0.56117584345217   -2.37457989938649    0.35446520843667
H          -0.19905466273730   -3.24857415025785    0.20367199332185
O          -0.83831229396208   -0.98236992059816   -2.09547964045177
H          -1.07661890944003   -1.63615408105968   -1.42429198302936
H          -0.99468852562101   -0.12352758915530   -1.66518056834927
O           1.81622757189310   -1.47778914633907   -2.22683696486742
H           2.20634154025473   -0.69746466836828   -2.62550592025854
H           0.84450269678568   -1.34461881882454   -2.31648370765324
O           1.51358983596749   -0.63766812027021    0.26247918335716
H           1.88442823085289   -1.13974134036402   -0.49821484329110
H           1.31859041134003    0.22709910683554   -0.16884251848529
H           0.19856274135073   -1.74882734100932    0.32354755512036
O          -2.07247989662785   -0.47023132544328    1.59357898472596
H          -0.75332483066481    0.02407791714109    2.23158993225269
H          -2.05121627397525    0.15509297535558    0.84024911749553
H          -1.82028662038022   -1.32530842959331    1.20912865300236
N           0.22243456229532    0.45817683186914    2.38961800994313
H           0.91597206093620   -0.10600360360698    1.87730459305744
H           0.46004899751661    0.55503306805358    3.37047932498229
H           0.18005499453497    1.40940308003985    1.88978314873413
