    26
        -50.46400286  Gyration_radius:  2.43640073099 Dipole_moment: 6.323
 S           0.22388136541533   -0.10559360855321   -2.23884167929661
O           0.82589180095296   -1.40152434374636   -2.45474802880117
O          -1.18874023714399   -0.16444566912463   -1.94672582793233
O           0.95815300419969    0.70385896333217   -1.26328245163589
O           0.38313709473224    0.69708765343858   -3.60361095479297
H           0.00481335164447    0.08330319038285   -4.22389090982964
O          -1.43046921301998   -1.17376858361651    1.64523647821720
H          -1.89866990963250   -1.91258980163132    2.03576890058466
O           2.38380688097836   -0.34866809698231    0.61142856014013
H           3.31207431459917   -0.20852654484798    0.42124267088637
H           1.88772318428487    0.02833622448599   -0.16746478049873
O          -0.35657527897471    2.32128845384121    0.35443648361015
H           0.10047194557043    1.50373068179773    1.45172264175756
H           0.14214749454498    1.89076268234545   -0.37586679491591
O          -2.53499386983436    0.90384976921463    0.06509599592112
H          -1.28585311219276    1.98178149014381    0.24118204301064
H          -2.19368866444938    0.53798870089963   -0.77742369049017
H          -2.39766414312833    0.18801503400271    0.70122807158223
O           0.32735724589573   -2.18153495515084   -0.00005014837384
H           1.17796326279222   -1.88171820688055    0.34637173394739
H          -0.85737348209377   -1.56303023940005    0.92861927744214
H           0.38028380695692   -2.00170320410175   -0.96213372115695
N           0.43801268073516    0.71775070777791    2.17279119001835
H          -0.30262367706070   -0.01078837449474    2.17511718241952
H           0.60126008811732    1.08906700582334    3.10102502546759
H           1.29967407611824    0.30707104102770    1.76277274272888
