    26
        -50.46379214  Gyration_radius:  2.52789537233 Dipole_moment: 3.675
 S          -0.14691788785620    0.72497492555177   -0.15967821824274
O          -1.37835492341948   -0.16283820245422    0.21185889316284
O          -0.37819674422985    1.16789096651927   -1.51133478593309
O           0.00141213921104    1.77085489442895    0.81984134342248
O           1.01278718209058   -0.21481209110509   -0.11893914432365
O           1.36806007372759   -0.03922290399739    2.53087987610016
H           1.35202183606953    0.91122865484273    2.67570733927870
H           1.39133270182035   -0.14346874481871    1.56230292538944
O           2.37390776893234    0.03760506601897   -2.45469725302475
H           1.99446373392899   -0.01907829974865   -1.55721918311409
H           2.58326986117579    0.96319933858073   -2.59067255998319
O          -1.63531069379341    2.11291925228172    2.88803348160343
H          -0.99978584645313    2.11547983664401    2.14183744704760
H          -2.39266369306407    2.62067957897551    2.59419269326554
O          -0.04667655405957   -0.55201131743745   -3.45659891412484
H          -0.22641448842249   -1.56159677656615   -2.38125979832654
H          -0.35262345849569    0.21294734426795   -2.91466399515936
H           0.92625932238007   -0.43718218033665   -3.44595479448492
O          -1.24378204807459   -0.53707583434967    2.69818682755004
H          -0.26588320107360   -0.51597533976475    2.81963561945097
H          -1.54807607124489    0.33907418701949    3.01120871241642
H          -1.36581720930908   -0.33822114635661    1.22989969916864
N          -0.25829555143775   -2.05358179279665   -1.39300469487968
H          -1.18911499805657   -1.94594534435437   -0.98826711017525
H           0.38272410550770   -1.43278995809204   -0.79856462748790
H           0.04167465411727   -3.02305412295208   -1.41272975861482
