    26
        -50.46400448  Gyration_radius:  2.43635570217 Dipole_moment: 6.307
 S           0.39073407333060    1.92994419921625   -1.09518752593365
O           1.82649363151623    2.07271227724445   -1.01581062180580
O          -0.04161330441821    0.96349028778363   -2.07703768875796
O          -0.22793583509226    1.70646412645343    0.21363966692778
O          -0.17956362347949    3.34233930616124   -1.55549796357597
H           0.30695808983689    3.48352050293830   -2.36042380798988
O           0.47958096738163   -2.37935092001803   -0.48139043162456
H           0.98306958325845   -3.12883508752218   -0.80117691464204
O          -2.33358111994370    0.13081718136296    0.42339629700444
H          -1.52218993981715   -0.75471334134090    1.22253483242082
H          -1.69574709292418    0.87238006236708    0.32024307295418
O           1.04430731140143    0.60950955775515    2.17213553840315
H           1.23366889373837    1.27134462907310    2.83822874280278
H           0.60410543318624    1.09816511659725    1.42231618167854
O          -1.67969831646009   -1.09446399699824   -1.79165404512361
H          -1.02345071096257   -1.73492420251955   -1.48322534918881
H          -2.30497354985391   -0.33216290781250   -0.45793100077868
H          -1.14247514847648   -0.32347162700258   -2.06967799240372
O           2.16113751288618   -0.40172834541414   -0.21356681091262
H           2.10249278836189    0.46419230924678   -0.66936072564830
H           2.12164485017158   -0.18016102659833    0.72595406442835
H           1.10299066603157   -1.60193477352901   -0.50741077633897
N          -0.74262208953191   -1.38218941262583    1.72281731327591
H          -0.03650685768585   -0.71624308470662    2.09295514241740
H          -0.29857441976432   -1.94618149573317    0.97177497380276
H          -1.12825179268760   -1.96851930439392    2.45335582861876
