    26
        -50.46400342  Gyration_radius:  2.43640914241 Dipole_moment: 6.320
 S          -1.79756628345817    0.15649153265281   -1.34847721419056
O          -0.64658039139356   -0.05555816631567   -2.19385204705833
O          -2.53691849279943   -1.05163836838520   -1.06168141242726
O          -1.46592076395120    0.91662951596551   -0.14093154420141
O          -2.78905823976222    1.11229028681143   -2.14579809229318
H          -3.06626867653920    0.54056509192542   -2.85350298580333
O           1.99472268158169   -1.46462760253669    0.04618077231654
H           2.49121068893811   -2.27875572126032   -0.04385804411728
O           0.81891299669190    2.22944445939999   -0.00287320550606
H          -0.10757208132095    1.92577678659440   -0.13211418582105
H           1.20002083468297    1.34101317743141    1.06830153545993
O          -1.19943669680987   -0.20323502157303    2.16771984719298
H          -1.38295952701477    0.21065379922831    1.27890108961498
H          -1.93997407354848    0.03846872508278    2.72509245789063
O          -0.52193631392161   -2.13272740879339    0.22349091626266
H          -0.79769979239267   -1.79922572053941    1.08723710137815
H          -1.23410768222422   -1.84585282339535   -0.38591735479289
H           1.03417053600632   -1.72322223830197   -0.01771490539863
O           1.87073308158773    0.66710131547913   -1.81666749978635
H           2.14266559783740   -0.09867015506705   -1.29166767034010
H           0.97697777443454    0.42597023122212   -2.13792626206735
H           1.31157041844544    1.82417284776613   -0.76758322486683
N           1.39062498409371    0.51421130959037    1.79733641756685
H           1.78746129080241   -0.27202863799135    1.24638084644050
H           0.45722505750317    0.22713791767492    2.15177915066558
H           2.00970306250955    0.79561487732165    2.54814550388468
