    26
        -50.47000261  Gyration_radius:  2.46335066141 Dipole_moment: 2.799
 S          -0.23920635177093    0.48192858303240    2.14949466372357
O           1.09289359646312    0.29682917975430    2.67160897008957
O          -0.40138956052037    1.63040578827090    1.29229075174180
O          -0.77840101032302   -0.72768356423329    1.50692702867921
O          -1.16671917438844    0.69884641923383    3.42708595373254
H          -0.51755900913496    0.91487647391063    4.08794354231973
O           1.18584015845593    0.99011915510852   -2.00014260174359
H           1.90519357012394    1.38747412189389   -2.49225684070089
O          -0.03337725858073   -1.46975744358259   -2.18091683011250
H           0.47179564406289   -0.64526961031080   -2.30772557784487
H           0.39918283984590   -1.92922091804306   -1.44200191548788
O           0.93267443557743   -2.29579011771931    0.27670480411427
H           0.29088653580814   -1.75345805381738    0.79539484742259
H           1.12709095672375   -3.06699315891626    0.81052574710808
O           2.21321362969737    0.15692407904187    0.26204996086652
H           1.89592369918721    0.38652519997003    1.15497189806993
H           2.05620646700543   -0.79720770844078    0.18786152186272
H           1.55704865364330    0.77373524863432   -1.10335144209558
O          -1.15374271122834    2.17111565723804   -1.18504695815473
H          -0.31963938131847    1.93798353621957   -1.63170127601123
H          -1.78540562372622    0.75257069032433   -1.03217260553643
H          -0.90787990402811    2.22836803336779   -0.23991374613771
N          -1.95731312584581   -0.28464128047271   -0.81356700810939
H          -2.93241196267321   -0.54307541037872   -0.90615260026477
H          -1.60804960643975   -0.44603328293317    0.16761039918634
H          -1.32685548659770   -0.84857160715479   -1.45552067670114
