    26
        -50.46133353  Gyration_radius:  2.45268760694 Dipole_moment: 4.950
 S           2.01442556351269    0.02104101163295   -0.65282188992280
O           1.54680067626199   -0.69801713761002    0.51323922022630
O           1.12921509818480   -0.10904638522002   -1.79200844606281
O           2.30091573042560    1.42485494515318   -0.35520152664619
O           3.39268906294483   -0.63628293651221   -1.06289766615936
H           3.61726458444824   -0.17603762488216   -1.86556537216693
O          -1.99907417343153   -0.50521832481247    1.35423491725654
H          -2.93609009918216   -0.67665979194374    1.25287382252399
O          -0.47585985843385   -2.41592316229540   -0.07602843431697
H          -1.02611916802550   -2.09538338655746    0.65146610299372
H           0.35371164613851   -1.91382363062794    0.00657342194137
O          -1.92359837673812   -1.45326943544576   -2.14730705082165
H          -1.31979226749187   -1.42993169966788   -2.89228232955172
H          -1.43246797664296   -1.93654276455492   -1.44376599691744
O           0.26763898427363    0.33378491271496    2.62047523833412
H           0.18723382267981    1.59192136401761    1.72555294851374
H          -0.59689370907559   -0.08604788271494    2.48287875576769
H           0.87767448607313   -0.15926927301055    2.03414011358177
O          -1.18145087956520    0.75535756154632   -0.89703495797044
H          -0.28513751687414    0.49942720862099   -1.21806310886990
H          -1.74350173429874    0.14782316246723   -1.42923821806009
H          -1.70962818774745   -0.04344503541141    0.53393178517621
N           0.20796455699462    2.26866229336596    0.88448824258132
H           0.15559843089445    3.24360528754291    1.15776187166144
H          -0.55003164581408    2.00668529071633    0.23767070764722
H           1.12851295047600    2.04173544349243    0.37692783925910
