    26
        -50.46133331  Gyration_radius:  2.45236780968 Dipole_moment: 4.961
 S          -0.67707897095859    1.83520829431389   -0.80880174424206
O           0.75094620226907    1.70615938512424   -1.01394929845726
O          -1.38429338353334    0.57894921741045   -0.93960659725692
O          -0.97756924270094    2.50648811853553    0.45627358880030
O          -1.22342576612602    2.77922314822169   -1.95338839789762
H          -0.68097059345501    3.55670335404234   -1.86498962515138
O           0.07167530209231   -2.39472998383497    0.59272578745470
H           0.69776891949087   -3.11189694068298    0.69929170944980
O           0.15827909232849   -1.36731440774953   -2.04452778423988
H          -0.36395715853515   -0.57649587505275   -1.82311027196767
H          -0.06851545669975   -2.00761768325524   -1.35656883734773
O           2.75012844724806   -0.95404424486999   -1.39379101814328
H           1.85829238958155   -1.16380534561698   -1.75495330756664
H           2.98084949849048   -0.11229212370115   -1.79172805388774
O           1.47920857800024   -0.08868243693331    0.75706594962196
H           0.58978746833872   -1.55972025697000    0.65716328928123
H           2.19291572155669   -0.49674135487923    0.21625931085511
H           1.18112518390281    0.62874294539040    0.15025329566923
O          -2.22734617686742   -0.99689309341621    1.04728904193039
H          -1.36726455731701   -0.05090752728900    1.91718748854016
H          -2.16032352754039   -0.45976860542906    0.23120096088066
H          -1.63426717438862   -1.75010333443609    0.89389259174720
N          -0.65545493414082    0.68893335046855    2.25107190283926
H          -0.76729558006451    0.93520942276750    3.22819428646854
H          -0.81639914436280    1.53174688082345    1.60252834319704
H           0.29318484339994    0.34364908701822    2.04501739942079
