    26
        -50.46133385  Gyration_radius:  2.45384180233 Dipole_moment: 4.916
 S           1.68225498834292    1.20014475539066   -0.47571705515211
O           0.77804931020951    0.64253188525258   -1.45903950922507
O           0.99798327751371    1.74536582708718    0.67867334009553
O           2.72160702383801    0.24833628924504   -0.08182083333248
O           2.42642335267324    2.40354382144194   -1.18132043439429
H           2.95160324907145    2.77098035946405   -0.47722063369353
O          -2.01415491655137   -1.39228847242062   -0.28593625537700
H          -2.85694702855883   -1.56588712811117    0.13512632472599
O          -1.80788446581607    1.34067855033976   -0.99607726071452
H          -2.12056710628514    0.43032780761922   -1.08697798888785
H          -0.85324341847894    1.28943320831950   -1.17826645648904
O          -2.22877212613943    1.65392449347373    1.65625672972532
H          -2.17634562534066    1.64235487509026    0.67286392380359
H          -1.68415902736097    2.39801718416762    1.92020702818492
O          -0.41517364183942   -0.26997990381561    1.58890573466834
H           0.17589199673699    0.44739442947300    1.26036252421684
H          -1.18146174948709    0.25844971494215    1.90791034316010
H          -1.43688404120457   -0.98810871368134    0.40188473647996
O           0.18647638176891   -1.94101761774538   -1.80284661395881
H          -0.74212803789280   -1.91418385550453   -1.52075786728909
H           0.43141720675738   -1.00227379692764   -1.93590789709943
H           0.94876584501858   -2.10411117580558   -0.46722839436125
N           1.44089919954551   -1.91491236638010    0.47486111149470
H           2.08634468324339   -1.07714233526621    0.27979969931376
H           1.95460321228030   -2.71677249129675    0.82278638529784
H           0.73540147795105   -1.58480533434948    1.14947933880602
