    26
        -50.46814405  Gyration_radius:  2.48709860679 Dipole_moment: 4.362
 S          -1.38130483798968    0.00189949794591    0.16206758995112
O          -2.21459795277424   -0.44106493194948    1.25045575878404
O          -0.68675469074866   -1.11836310606355   -0.48597439890312
O          -2.26589243398933    0.70123638054074   -0.87969133982584
O          -0.37297568151987    0.98764763498663    0.61566714613976
O           1.80527478362359   -1.97138702089778   -0.09176409425370
H           0.83968979832784   -1.87704684790112   -0.23722727345986
H           2.20345684762839   -1.57139336989305   -0.87135429631901
O           0.79565323322772   -0.54628451966748   -2.55979386621014
H           0.50543874899457   -1.08804845584526   -3.29561127865630
H           0.19759668040944   -0.76857830417695   -1.80495059382533
O           0.35254903045924    3.26377545959530   -0.54670963250398
H          -0.25472389013616    3.94118226164951   -0.24440706204341
H           0.13773063024198    2.45685771680305   -0.03403324797291
O          -0.63927826909247    1.75084090776475   -2.54132185389869
H          -0.19398790362613    2.42692062634574   -1.98927643612542
H           0.02100444920043    1.04437111739066   -2.68480133571631
H          -1.65883447726206    1.12513171483061   -1.57696007863866
O          -0.81671757151453   -1.86045950661829    2.91353763435536
H           0.53537856198144   -1.07493133726421    2.52503606125237
H          -1.44935913497511   -1.31751240371742    2.37463432283827
H          -0.91908058708232   -2.75989497672919    2.59603887773104
N           1.23332259691869   -0.46797107081432    2.01010749281767
H           0.63209110262693    0.24222349097753    1.47822422452326
H           1.70429277401053   -1.05970135499908    1.27911920819509
H           1.89002818305639   -0.01944959229145    2.63898848176774
