    26
        -50.46133246  Gyration_radius:  2.45148300483 Dipole_moment: 4.973
 S           0.37100479972676   -1.84630531911514    0.96197790263317
O           1.46337732732853   -1.53462749142319    0.06301859427265
O          -0.16806066257245   -0.67812953194864    1.62538546179741
O          -0.66912890882518   -2.62606048420995    0.29024159223173
O           0.96056563688221   -2.77578712843372    2.09699832631147
H           1.36730174675506   -3.48114871234995    1.60348966077156
O          -0.68817474417685    2.34593124624957   -0.34712070335886
H          -0.43662315970722    3.12427757947903   -0.84572296279480
O           1.42804928075423    1.50319895706351    1.33467954154578
H           1.01586497626418    0.64391756159926    1.53163217942335
H           0.69228443889531    2.06746906409293    1.06080634202736
O           2.74518687822587    1.34741819155072   -1.02227235523266
H           2.38448882205154    1.47910764650213   -0.11557826775980
H           3.28473808251951    0.55709482052750   -0.95512217008294
O          -2.38549207482578    0.65879854705126    0.96442070736380
H          -2.32608671348890   -0.23086742532018   -0.29877274171608
H          -1.67575938330256    0.18553652117820    1.44541220620509
H          -1.97102385409846    1.48530511720025    0.66827700270643
O           0.42498529748291    0.21707330811220   -1.59332581823859
H          -0.28300624991598    1.57574019601686   -0.80820230392966
H           1.24830668177465    0.73818235177625   -1.73121685377268
H           0.75916411810485   -0.49096467167283   -0.99436947671196
N          -1.99996889538879   -0.90026703010245   -1.08059314210214
H          -1.52568176436311   -1.71360093017323   -0.56070621828463
H          -1.25772912708982   -0.43215310430888   -1.62051976866768
H          -2.75858253901148   -1.21913927936050   -1.67281675462825
