    26
        -50.47229196  Gyration_radius:  2.48075155309 Dipole_moment: 2.003
 S          -0.46931545150192    2.19135828540705   -0.41320185918206
O           0.66213595626214    2.35001017231518   -1.30644596408487
O          -1.62044995635833    1.56172982770697   -1.02757807708424
O          -0.09146269176443    1.52639238754045    0.82990550543153
O          -0.91735233761329    3.66117190378574   -0.02473548795152
H          -0.08005219996176    4.11234813258498   -0.00940713978626
O           1.06282672326790   -2.03976451020778    1.47460035902229
H           1.66737277200065   -2.57552413396034    1.98837084434263
O          -0.01821676058822   -2.16092934822959   -1.05417828450507
H           0.50094910163282   -1.45007137123560   -1.47564160961605
H           0.40232459665401   -2.30887104123191   -0.18785678942756
O           1.41330495731889   -0.02783662418232   -2.00557035607788
H           1.69218178560622    0.00603827158773   -2.92191944360910
H           1.09721017253291    0.88529634194281   -1.78401216814265
O           2.19190341888993    0.16967687730601    0.67882925352218
H           1.56182382049628   -1.20919479235584    1.22492170355299
H           2.26692426373487    0.06910003250566   -0.28009787331564
H           1.43337185692048    0.77764152646908    0.80332418981476
O          -1.12317721439366   -0.52964489513517    2.22739261451762
H          -1.90077906650255   -0.80021705911901    0.86570993264746
H          -0.37432129326024   -1.14921744720804    2.16036214451132
H          -0.76320082448995    0.32929060145159    1.93304648315282
N          -2.13104164977807   -0.85314369207727   -0.17300520995084
H          -1.38526522827215   -1.46194528248447   -0.62339346183289
H          -2.01148439647029    0.12822825453717   -0.55255145903092
H          -3.06621035436393   -1.20192239772031   -0.34686783691388
