    26
        -50.46400449  Gyration_radius:  2.43617596609 Dipole_moment: 6.307
 S           1.72989248576929    1.37728788061243   -0.43081125627145
O           1.09158680244062    2.65341415181199   -0.65908128478150
O           1.81373292951655    1.01299085319659    0.96388587286296
O           1.16012573250166    0.30589332287722   -1.25133457098268
O           3.22349018837867    1.51666364248788   -0.96191427852991
H           3.52640392184764    2.26864859773601   -0.46458345665145
O          -1.59585363838351   -0.22133426195928    1.87711938224399
H          -2.17808761302294    0.07485605261830    2.57762771293738
O          -1.27470525121163    0.36637707773934   -2.10231734922425
H          -1.27684321609741    0.52470755449645   -3.04709209782097
H          -0.31799900671268    0.40767822242116   -1.82313546551927
O           0.98474691786289   -2.14349914436656   -0.28618646289584
H          -0.44982096048419   -2.01184144979512   -0.36575391191639
H           1.24068171273440   -1.29838744709713   -0.71928875714020
O           1.04193360055455   -1.21795603418064    2.15807550867649
H           0.11832551344308   -0.96920744529940    2.30304897895812
H           1.13581707932639   -1.96942716850399    0.68279955439569
H           1.46153399615436   -0.38970349926425    1.84448988415773
O          -1.20158804742721    1.82769844290809    0.31003807943402
H          -1.54451886683457    1.54249900314735   -0.54694284149780
H          -1.35074311360742    0.59686934780763    1.36298428853330
H          -0.33164558220872    2.22851588118090    0.10148287514709
N          -1.52874951923145   -1.71654989095414   -0.38246126662165
H          -1.71797086545025   -1.25880651512959    0.53083216246146
H          -2.14361847319732   -2.50592319546413   -0.54053368079221
H          -1.61612674665979   -1.00146397903734   -1.13094760913206
