    26
        -50.46400431  Gyration_radius:  2.43647369063 Dipole_moment: 6.311
 S          -0.17119584238383   -1.52166691007372   -1.65291264040610
O          -1.51524833902531   -1.17576092353638   -1.25465236213236
O           0.29183989422720   -0.80102734070668   -2.81677781027686
O           0.77311419981115   -1.45617987601806   -0.53494044347314
O          -0.18892577433795   -3.06177834203052   -2.05260518376479
H          -0.73404328322067   -3.04311226266296   -2.83175095400677
O          -1.20653304451669    2.09057381529884    0.54589021523390
H          -1.65456133587611    2.91945332120590    0.37355417416390
O          -0.12364574446260   -1.35985759900649    1.94444476027696
H           0.21108213941441   -1.60820117513648    1.05358672839659
H           0.45512306578029   -0.04223745042445    2.04307117933957
O           2.42240228905490    0.50469788817580   -0.23340324258294
H           1.82738116119587   -0.27415339572923   -0.41839251899016
H           3.31195300069507    0.20302188375946   -0.42128682187477
O           0.16876784510059    1.51737830347558   -1.59663297742491
H          -0.79229301852712    1.82004978859809   -0.31953354555474
H           1.08531272591715    1.48923198442712   -1.29262486625790
H           0.06873923478668    0.70747190486335   -2.13981909093978
O          -2.41293267358737   -0.40975586261156    1.11343231072791
H          -2.21970284000609    0.53373855776973    1.02139578383754
H          -2.24821921193738   -0.77160068349451    0.21773770199626
H          -1.08027660005287   -1.13342848789224    1.78447911474180
N           0.85452026812418    0.99629522584204    1.92540674171610
H           1.20077314596041    1.37883261149835    2.79713731327750
H           0.07520690831899    1.56437715812404    1.53925183489034
H           1.60136182956577    0.93363785636454    1.20594459899307
