    26
        -50.46400444  Gyration_radius:  2.43645701138 Dipole_moment: 6.309
 S           1.20609131168866   -0.69519773092307   -1.77175997851267
O           0.92796966629299   -1.85926556288903   -0.96406237075494
O           0.29398872622775   -0.52740262686428   -2.88001674800547
O           1.34484800321259    0.51970682311058   -0.96513351216278
O           2.65124249069403   -0.90578849775150   -2.40373266277476
H           2.49355348554696   -1.64588620085882   -2.97987515512524
O          -1.96837332865444   -0.89764306604333    1.20132548975639
H          -2.81740900061962   -1.32945017783599    1.30169838545589
O           1.68066173989470    0.33723535462321    1.64552315456130
H           0.40380570772161    0.99089056407366    1.79937118209217
H           1.77037320737116    0.40334665839120    0.66834620409297
O          -0.52496796028881    2.29053514421279   -0.80818644800104
H           0.20670362087497    1.62732031353902   -0.94853538509256
H          -0.25865055205639    3.07667191716190   -1.28649098933377
O          -1.77405296816450   -0.19028629097619   -1.30285000982537
H          -1.07298465439074   -0.47758608893557   -1.92494671589176
H          -1.85228248835911   -0.74984511312416    0.22228674282799
H          -1.68728951745902    0.77145534339260   -1.27312066292944
O           0.58619777758627   -2.03719751335139    1.65377980542243
H          -0.35770621655286   -1.82574438860803    1.67138341711560
H           0.78550643099984   -2.14194930528176    0.70009568598478
H           1.42461749642231   -0.61313802625809    1.79734048147275
N          -0.63706459111221    1.39837806249376    1.75163757059215
H          -1.26840682959378    0.57510381847010    1.69725196864472
H          -0.69813762005992    1.91736584086526    0.85382853609042
H          -0.85823394749014    1.98837071939282    2.54484200428343
