    26
        -50.46400359  Gyration_radius:  2.43630711072 Dipole_moment: 6.315
 S           2.13897655963514   -0.61864082738948   -0.34055980999869
O           1.68813550214070    0.04068629929643   -1.54325617155081
O           2.88353436714346    0.24295559728515    0.54913148935266
O           1.05554634941128   -1.33272745520410    0.33942254982585
O           3.13824027292526   -1.77245553564535   -0.79080182747491
H           3.87026328711978   -1.26350380626178   -1.12200428370944
O          -1.30802820820562    2.03231977687058   -0.53201130930537
H          -1.47302732392340    2.96971933235634   -0.63881862490669
O          -1.20049344736525   -1.82125656026221   -0.93799448447522
H          -0.30182384921528   -1.83079633406409   -0.53830565518427
H          -1.86000584923861   -0.95884324408314    0.01159241573906
O          -0.10130069559291   -0.40602676623720    2.45105883075433
H           0.41465069321189   -0.77323074190272    1.68045747661744
H           0.15519958720186   -0.93156946477054    3.20975340717938
O          -0.74231526071917    0.15942368832684   -2.58214508773837
H          -1.05717986693921    0.92069931411145   -2.07492603931702
H           0.21478868545539    0.11957331314130   -2.37582408034556
H          -1.10824664643208   -1.20774667005787   -1.71705985807433
O           0.81962041062321    1.80829591621359    0.96322836236106
H           1.65270410646293    1.35866832537223    0.70902503146452
H          -0.42645933115393    1.96204650044420   -0.07226956086222
H           0.51527153708037    1.32488279601018    1.74233420107848
N          -2.19993440108468   -0.18570998753226    0.74559899084521
H          -1.55254350762639   -0.25810643371404    1.55481767320813
H          -3.16608221835493   -0.31309312552608    1.02214763378863
H          -2.04949075254221    0.73443609325618    0.28740872072447
