    26
        -50.46133323  Gyration_radius:  2.45236535111 Dipole_moment: 4.952
 S           1.48729647644736    0.65348885882176    1.35771002089304
O           2.01765427618760    0.65285291598748    0.00977728051427
O           0.09836136858688    1.05638528322349    1.42016123410130
O           1.71846911935949   -0.62846341669491    2.02427914005266
O           2.30519536269512    1.73288687509576    2.17359021672189
H           3.20802359418545    1.46326690201718    2.03638833657162
O          -2.19992881814819   -0.27397088049394   -1.08332230653141
H          -2.58769136733961   -0.37663289267072   -1.95330184039383
O          -0.76135585554888    2.15872981909442   -0.91100692190566
H          -0.32457931256322    1.91756310453609   -0.07542473441040
H          -1.55340769090206    1.60493351426101   -0.93863759280407
O           0.58296420981428    1.06805633139880   -2.98869010759761
H           0.08640128135410    1.58650763339336   -2.31469287033645
H           1.50091990879901    1.31158919211778   -2.85367970601149
O           0.41018836147962   -0.95766129817446   -1.29844474238182
H           1.03118616259026   -0.41208670135769   -0.76137957785633
H          -1.25218552087794   -0.52779218942996   -1.16841983208829
H           0.45302352473573   -0.48371664643356   -2.15975989721216
O          -2.02566870713947   -0.55244000425216    1.62535536977882
H          -2.41121330591386   -0.39322113023633    0.74864456944490
H          -0.98414418427386   -1.66113807668709    1.34913996146017
H          -1.36971238511324    0.16545873130378    1.74081284341301
N          -0.08824976713090   -2.19555079948728    1.07063445889432
H           0.71034984264466   -1.64728412071718    1.53771933527368
H           0.04811399857940   -2.09403445754904    0.05441698959691
H          -0.10001057249897   -3.16772654706564    1.35813037281945
