    26
        -50.47126127  Gyration_radius:  2.42918147597 Dipole_moment: 4.303
 S           0.17529111355724    1.87321549040923   -0.33585962599131
O           0.65243405124066    0.93899701567960   -1.35006196307116
O          -1.16119222650062    2.35538063748286   -0.65239521966554
O           0.28519625114784    1.33392836791238    1.00080116520567
O           1.12472280739561    3.13335935306629   -0.39844834450432
H           0.82616165638289    3.56804861838254   -1.19020366480320
O           0.06909566891632   -2.31149779265537    0.94515037239071
H           0.30465850900145   -3.18559887330280    1.25712250944114
O          -0.79557235148020   -1.30339009372484   -1.44961064401946
H          -0.46115718133388   -1.80170104123477   -0.67998564126742
H          -0.19555042649133   -0.53528560021004   -1.54559018923206
O           3.02095977414484   -0.26098198033809   -1.20273744459233
H           2.20403009002247    0.26630713271626   -1.31778818840999
H           3.01468834912080   -0.91851761066655   -1.90036736284894
O           2.04880085787535   -0.68226545311546    1.30250700579473
H           1.52422301281972    0.13972018062973    1.31849589925982
H           0.87695681808203   -1.73227051913054    1.09672838546483
H           2.59485333461285   -0.61410517560047    0.49683855576935
O          -1.52409033774117   -0.37663410790468    2.06744083857538
H          -2.35141791168989   -0.04901774422513    0.75719493696467
H          -1.04080934411808   -1.19128991241388    1.83280917613534
H          -0.86529214133881    0.33334531326280    1.95812119028289
N          -2.57777445670414    0.19418002747350   -0.25780734275597
H          -2.02912480478965   -0.49924187016894   -0.85535309436629
H          -2.14775793104473    1.14201517976415   -0.44394838470685
H          -3.57233320110077    0.18330045792559   -0.45305295504757
