    26
        -50.46400437  Gyration_radius:  2.436540366 Dipole_moment: 6.306
 S          -1.25888780776344   -1.35382958174018    1.28833869812911
O          -2.11695744067173   -0.85329590263675    0.24056452352185
O           0.12860882309007   -1.50745802848563    0.84429520797914
O          -1.36834448465246   -0.61949876639091    2.52804105370464
O          -1.73094008887639   -2.84107431700757    1.60032376460438
H          -2.59881359298555   -2.68680198542092    1.95743613785544
O          -0.38259543334572    2.19416520937681   -1.07604223310938
H          -0.71310428473715    3.08935295358285   -1.15871837821013
O           0.70358921290412   -1.47047489692999   -1.73025367481700
H           1.45023689219233   -0.25992102722663   -1.48831767695558
H           0.47355748788049   -1.69685204589221   -0.80117739503136
O           1.97879198802637    0.16931618454250    1.49346281210960
H           1.25956566661783   -0.50041973399723    1.32301699712228
H           2.57138859652671   -0.24035942057536    2.12482488463905
O          -0.45540780526038    1.59536805113480    1.46213449488277
H          -0.95536361764900    0.85072505034411    1.85813984274752
H           0.46531947939164    1.41272372640499    1.69077130467436
H          -0.53582899908631    1.93417372933502   -0.12571800234965
O          -1.49227178237728   -0.14299172650170   -2.23078129554180
H          -0.14259418524560   -1.09817741156611   -2.10076414129521
H          -1.88563733205623   -0.45751340839682   -1.39019302705152
H          -1.22780966509590    0.76718283942750   -2.03662251323630
N           1.88811648383676    0.71666090838441   -1.16236856775475
H           1.12518034376973    1.41730176219408   -1.24226221405125
H           2.69771029952094    0.98013302506861   -1.71125967653116
H           2.12249123604671    0.60156481297300   -0.15687089603627
