    26
        -50.46061520  Gyration_radius:  2.54379116708 Dipole_moment: 5.982
 S           0.49872927021771   -0.00673816140660    0.01519600012368
O          -0.06359621295823   -1.19584089978383    0.83659393472437
O           0.80841387399013   -0.56557271737584   -1.29520247048908
O          -0.60377919051776    0.97335475442601   -0.11028616241060
O           1.63381330318881    0.55906995354097    0.69783120447713
O           2.52579418163735   -0.35782881642194    3.03065498329048
H           3.08194656041434   -1.11873243549485    2.85908308895216
H           2.31864663691749    0.03241323738133    2.15594236499690
O          -1.28049119569340   -2.13277678552409   -1.45962590598765
H          -1.40168366680766   -2.46195743834044   -0.56431453943742
H          -0.38800990519195   -1.71282105168371   -1.44898568778206
O          -0.14028265357302    2.12200896912636    2.26320468930997
H           0.81172267507765    2.24174589335261    2.19845036251876
H          -0.41796829507417    1.84504157494610    1.37155399771020
O          -2.15409599870274    0.22301499619635   -1.88751202886911
H          -2.03410634759415   -0.77992656428406   -1.75715801483881
H          -1.60190426375373    0.61753567790873   -1.08505142291929
H          -1.47515732154101    0.44261802464524   -2.72058879729563
O          -0.16099271799138   -0.36943762632471    3.20809196229207
H          -0.30508119028554    0.59373748583571    3.05793769799371
H          -0.14855990660348   -0.89672583389000    1.82269954736616
H           0.78759632114944   -0.44630336967287    3.43566955234935
N          -0.31375337945579    0.59551924668852   -3.55790939599366
H           0.36081465729611    0.21517690890250   -2.88368910876901
H          -0.05282780753457    1.54663032851751   -3.78180559196937
H          -0.28518742661331    0.03679462872304   -4.40078023934353
