    26
        -50.46400435  Gyration_radius:  2.43689889845 Dipole_moment: 6.304
 S           0.05606637493142   -0.24544014535007    2.24038447326642
O          -0.89724039153140    0.80067996874552    1.95416283266742
O           0.09793050380398   -1.26230805954813    1.18681403988233
O           1.36851620175410    0.24689213806562    2.59140154622731
O          -0.48939476076588   -1.03030927062034    3.51251670277368
H          -0.43723691014876   -0.35568874511650    4.18081562315677
O          -0.07709536815025    1.95316973745946   -1.51784687659030
H           0.12973410165944    2.83432777232398   -1.83126007071522
O          -1.83623012312990   -1.37897069600123   -0.60373832340161
H          -0.85480732034145   -1.03637453446762   -1.60434494208655
H          -1.23832726312244   -1.47405053882460    0.17142373563899
O           1.99809996103078   -1.37158487244128   -0.55523169380751
H           2.54980300408209   -2.13382781047814   -0.37558306007646
H           1.32010456016193   -1.34983723367935    0.17594970680828
O          -2.43289302236547    1.13055673212784   -0.17557431177526
H          -2.27416129363750   -0.49619021280108   -0.46010169690573
H          -2.00402280115878    1.09053492881994    0.70451011106399
H          -1.78562609023069    1.59005643040238   -0.72864723761081
O           1.75256604706858    1.32696638016195    0.23331614767317
H           0.54933817695978    1.77901698199543   -0.76196001996326
H           1.58858781568748    1.09157898117967    1.17094197978776
H           2.18064860277476    0.54433951130396   -0.13774205696071
N          -0.01046179924377   -0.65996625484944   -2.23436483714775
H           0.85848949558043   -0.99896648827312   -1.77690330736787
H          -0.03524919568195    0.37619453354185   -2.16276560619101
H          -0.07713853598809   -0.97079922367513   -3.19617286834636
