    26
        -50.46061526  Gyration_radius:  2.54382393066 Dipole_moment: 5.982
 S           0.47577254590011   -0.14871933638966    0.02037399465493
O          -0.83780662811345   -0.50576847774276    0.60244466593508
O           0.18480204481187    0.46348361049601   -1.37446703728108
O           1.07463614067432    0.93411025147787    0.79112971924831
O           1.32113218874447   -1.30573931157490   -0.12587054192479
O          -0.45602590456175    2.84594389715761   -0.13079465691002
H           0.27493707423011    2.25506132999873    0.16824781061016
H          -0.57875961506711    2.62551487808494   -1.05868766972419
O           2.16902216152346   -2.19300579722982   -2.48663926088303
H           1.95916844095769   -1.93350719830601   -1.56527477841370
H           2.93469397575848   -1.67698883494992   -2.74205373682344
O          -0.98519356329441   -2.87414696078712   -0.63676331984543
H          -0.10428825840108   -3.20835826677044   -0.44387096137813
H          -1.07282287067077   -2.07249380162622   -0.09028070833895
O          -0.40649626227188   -1.49100183885167   -2.83992151908964
H          -0.79951119048319   -2.10305940048484   -2.17522423667368
H          -0.09069278261801   -0.30184514437280   -2.01265487065035
H           0.49337326152474   -1.84115810818288   -2.99843971599910
O          -1.90506656230684    1.53592187456184    1.50651014821417
H          -1.52243928227748    2.19752727198003    0.83347660695725
H          -1.57991590139342    0.61461468463335    1.11925922958413
H          -1.22678652384117    1.63971517992795    2.36248495696700
N          -0.07012415920778    1.65394152878332    3.21950463424087
H           0.20949554485379    2.55256467263532    3.59057759506177
H           0.60471509593482    1.36602179811887    2.50114912469513
H          -0.06581897040551    0.97137150941242    3.96578453776716
