    26
        -50.46400414  Gyration_radius:  2.43675476905 Dipole_moment: 6.317
 S           1.68821791980554    1.11582556978567   -0.99182654339003
O           1.33888898052969   -0.30536516357227   -1.05667376923974
O           0.52469663592833    1.96841932094676   -1.05420987106784
O           2.57353990831820    1.42262113799703    0.10849831874682
O           2.51978895672903    1.36973095858320   -2.32452226528986
H           2.80588049408403    2.26732894612610   -2.19410786309262
O          -1.80650619781098    0.64760403072306    1.56234843170518
H          -2.21127970508993    1.10738730944030    2.29868914329657
O          -1.06869850113995   -1.03510778255633   -1.85233294598232
H          -0.12239516845543   -0.78200082741000   -1.76420675569379
H          -1.28370111527061   -1.56733129252344   -0.52850098262322
O           1.33622523419222   -1.82700266029861    1.02654081078069
H           1.41985609098199   -1.23279133167293    0.22972083404534
H           2.07247586187391   -2.43758616640102    0.97393091128762
O           0.77544619207947    0.79418387757719    1.91080831016428
H           1.06018526331890   -0.12613488490728    1.98281449213557
H           1.41403984116478    1.19740023801307    1.28566505813200
H          -0.82774275684201    0.82110413685861    1.63829912386518
O          -2.03267798995032    1.30197623095101   -1.18565361740898
H          -1.55400529770686   -0.16789275714134   -1.78732775045473
H          -2.18390893693485    1.19582145360316   -0.23599345468828
H          -1.13704646102076    1.69606009613619   -1.23836827145810
N          -1.33571799683513   -1.82596544213908    0.55862341925123
H          -1.67020321846594   -0.97064183487771    1.04418500366765
H          -0.35646581561438   -2.00814703714289    0.85435310839164
H          -1.93889223786720   -2.61949612609899    0.73924709492083
