    26
        -50.46400440  Gyration_radius:  2.4365934925 Dipole_moment: 6.307
 S           0.98139016466577    1.54299252963702   -1.31779769999852
O           2.03759563880305    0.86243926406493   -0.60624330226022
O          -0.15939184435398    0.66574334847608   -1.59139608851686
O           0.58828579989840    2.79513702232814   -0.71331148013591
O           1.55135887964299    1.89485355718605   -2.76123162861056
H           2.24148233056073    2.51130887408149   -2.54152533330329
O           0.36338590672393   -0.75685084351312    2.32755726805061
H           0.56227811341518   -0.67123987100685    3.26060748441971
O          -2.35133409665177    0.77687034971375   -0.23489150392162
H          -3.04398432516893    1.15018842338671   -0.78126227513230
H          -1.52235532877113    0.80994594724664   -0.78848901566491
O           0.10346000145969   -1.94832066121711   -1.35298922936233
H          -0.85538670848192   -1.88982090593966   -0.27641837975476
H           0.06234637924921   -1.01024839445865   -1.64581088707880
O           2.11935910607152   -1.62913119715795    0.28124717982671
H           2.27216484181546   -0.72701565647981   -0.06960065377874
H           1.67351121430945   -1.47702855587119    1.12626329106236
H           0.95669342714074   -2.00109152214068   -0.84214912787223
O          -0.26923155815376    1.62567022785916    1.47162036026321
H           0.18761713830262    2.11650455539160    0.75643932390959
H          -1.17743790346925    1.53349177086757    1.15558489524969
H           0.25055625531654    0.17322744100533    1.98702690898077
N          -1.51563859555257   -1.66577293022782    0.59846661586172
H          -0.88121738509511   -1.45082979946674    1.39259599832720
H          -2.14246579426297   -2.43117263536090    0.81613801008393
H          -2.03304166741313   -0.79985032840362    0.34956925935502
