    26
        -50.46400263  Gyration_radius:  2.43654618884 Dipole_moment: 6.296
 S           1.74101727843042    1.43039848981673   -0.07905540275002
O           1.56466901590285    0.13260943828750   -0.73501972720903
O           0.53853470317944    2.22930525476138   -0.11071132193988
O           2.32402649939907    1.31305965389943    1.23765852723459
O           2.81176389916951    2.17872249099460   -0.98769766329179
H           2.91671820286669    2.99670081063106   -0.51391164517770
O          -2.16302076357968   -0.01604119461119    1.20114660243355
H          -2.76641485693270    0.12329017458701    1.93187591329074
O          -0.51788332155385   -0.28140684869316   -2.30029070905968
H           0.35406699506497   -0.06614016883862   -1.89935778608457
H          -0.96143858572933   -1.27519963217090   -1.35258619309462
O           1.26336101934537   -2.05816736424215    0.59425457884446
H           1.45774447528464   -1.20794689610710    0.11038484585024
H           2.05583062857506   -2.59028288566333    0.51379845019826
O          -1.84291828863794    1.62020510299654   -1.09020465174127
H          -1.00383176805008    2.01790672147335   -0.77700058163809
H          -1.09356410726082    0.49052449390424   -2.04637476909190
H          -2.18859729921214    1.16325657103561   -0.31070777561201
O           0.24804100306060    0.03047546461489    2.19663694288842
H           0.96298780536817    0.64814939346204    1.93473428822802
H          -1.24900541399323    0.13201023667803    1.57089575778534
H           0.60482008671104   -0.84513532173010    1.99818089273853
N          -1.22435926060110   -1.92359806397676   -0.47980404639587
H          -1.74556588719665   -1.31794724531161    0.18433183027971
H          -0.32109065970069   -2.18901077381817   -0.04060959984919
H          -1.76589138991000   -2.73573789197854   -0.75056676683738
