    26
        -50.46400423  Gyration_radius:  2.43689324182 Dipole_moment: 6.301
 S          -0.47304497766370   -1.33532896976197    1.75403998172887
O           0.06922922955264    0.02530400842328    1.73263488750450
O          -1.53105200213679   -1.51870296633749    0.78849048526749
O           0.55713045499432   -2.34620459392657    1.68370077684819
O          -1.13728744988673   -1.46329761591339    3.19424651628205
H          -1.41958367973496   -2.37148914537738    3.18614435540541
O          -0.12128245873848   -0.27677236864845   -2.45569574018801
H          -0.04676834528198   -0.73045937613016   -3.29596871660141
O          -1.25413822887146    1.95121854375098    0.50817355198387
H          -0.87242155519354    1.29753365560367    1.13618046434787
H          -0.15120455152727    2.04552623065283   -0.41679006918966
O           2.33037181161143    0.59729884042095    0.62892050400866
H           1.49896797328902    0.33266585457395    1.11212694159949
H           2.97400206794471    0.79786075076433    1.30946841209463
O          -2.49411760963347    0.19660579581653   -0.98155085933975
H          -1.84708088206402    0.03216139229126   -1.68179726238577
H          -2.31072793487713   -0.50523043623551   -0.32278573818991
H          -1.90267878727458    1.41710847097106   -0.02656953150040
O           1.28554067045792   -1.64200917888271   -0.73419111703023
H           0.31082771778768   -0.87420232162101   -1.78458097796365
H           1.96082257527923   -1.02123033453233   -0.43101493415534
H           0.94181313802385   -2.04758475986989    0.08973525078992
N           0.71952972304355    1.91973954821896   -1.10807568378935
H           0.97664705672527    2.78495166239305   -1.56789541720137
H           0.44289010426956    1.18852252341385   -1.79222899817087
H           1.49361593990449    1.54601480994242   -0.52471710215525
