    26
        -50.47229103  Gyration_radius:  2.48093175036 Dipole_moment: 2.009
 S          -1.96035690378788    1.04898078606769   -0.49982772666135
O          -1.32202026275295    1.06545094292754   -1.80038367719384
O          -2.75431443656764   -0.13837830698012   -0.24825710357855
O          -1.00303200437702    1.30063961329481    0.57258357066020
O          -2.98537682505624    2.25797952447684   -0.48853698817164
H          -3.61611064977474    1.95969191463353    0.15791467484849
O           2.07008318191750   -0.66125275044063    1.65704777634863
H           2.57231423318771   -0.95313061611489    2.41799287864890
O           1.50665955297739   -1.67386698271386   -0.83988249880189
H           0.57546325528784   -1.92733009495901   -0.69470682363137
H           1.85280689758679   -1.44627549244966    0.04196949585177
O          -1.13294987921406   -2.15732243991971   -0.28877090971108
H          -1.59044898555755   -2.89775228512332   -0.68998767406280
H          -1.76596794883279   -1.39514103241818   -0.32476706527969
O           1.62942712045561    1.86110715081895    0.62321903492704
H           0.66012797699756    1.85571256895898    0.74297918472058
H           1.94331931039869    1.07104972527131    1.09908137581852
H           1.56194599774977    1.33896935902294   -0.87849746944431
O          -0.49396348515439   -0.82397377803997    2.09055381550136
H          -0.79261259888920   -1.52958762889933    1.50042012499266
H           1.10447699694974   -0.73619150715413    1.90860394865082
H          -0.77331253896626    0.00314559097426    1.64521653540096
N           1.27488779190363    0.79122041521773   -1.74583497232142
H           1.43285140177868   -0.23687273655673   -1.52738237508773
H           1.77463589954641    1.08730959199026   -2.57589138027672
H           0.23146691219406    0.93581844811794   -1.85485575214028
