    26
        -50.46400347  Gyration_radius:  2.43672372426 Dipole_moment: 6.293
 S          -1.01134015505275    0.33196263146218    1.98780716127850
O           0.22040144714154   -0.37205471107693    2.25691468146749
O          -0.90069896119397    1.22572283810077    0.83247244331986
O          -2.16770346467415   -0.53114850158182    1.91380829640282
O          -1.25473419765188    1.31569473804477    3.21430121756748
H          -1.36208705449518    0.69610316511571    3.92781692510761
O           1.20410514386307   -1.90435191314236   -1.02246649286727
H           1.38911427862787   -2.82072981920572   -1.23092915500412
O          -1.90037381761924    0.63322402233884   -1.47110363427836
H          -2.66336332109267    1.18782889429589   -1.63810111567814
H          -1.59201789796408    0.86662989145989   -0.55168599494580
O           1.47398901739825    1.85906270840288   -0.12588436980970
H           1.10730142411294    1.16885838807808   -1.33838011762596
H           0.61504148842881    1.80047993680394    0.34974037508105
O           2.50334683488369   -0.30369303001398    0.92125502109510
H           1.76473998018230   -0.35631776023120    1.56321528207591
H           2.28389674513582   -0.97430444829697    0.25935062197054
H           2.03917966643541    1.16991534548630    0.31867458173071
O          -1.26806377796125   -1.80237593327000   -0.19553380507654
H           0.30585346112400   -1.89947580612467   -0.58970100569703
H          -1.56316562910443   -1.47788519683064    0.68133667793201
H          -1.70685736412556   -1.21666959547038   -0.82624112751128
N           0.72170560626241    0.50995613295222   -2.15635470213468
H           0.99652769733471   -0.45904201050565   -1.90176754956731
H           1.07914595529658    0.77394997884526   -3.06666692926734
H          -0.31394311529267    0.57866003436339   -2.11187729556568
