    26
        -50.46400433  Gyration_radius:  2.43632052131 Dipole_moment: 6.304
 S           0.63380258216322    1.77567628958788   -1.23405346523759
O           0.79960084600709    0.34445983669583   -1.49811912822460
O          -0.66470035805088    2.08429029194608   -0.68304307170127
O           1.73165322324836    2.33329528561875   -0.47796359253457
O           0.69153278644910    2.44274400131106   -2.67761450296962
H           0.64595133144783    3.36651596154680   -2.45606263958046
O          -1.09937960376199   -0.25961614689387    2.20083109141561
H          -1.29357107758482   -0.06002608176032    3.11731643433468
O          -1.30998827928071   -1.23933857433296   -1.54495424072765
H          -0.76218480593053   -1.90970074545848   -0.39026522259607
H          -0.56178068463038   -0.63092197609296   -1.73816013997740
O           2.17962689272248   -1.19818553571609    0.04198601459019
H           2.98762354077564   -1.45228020864130   -0.40554389702078
H           1.71762768633670   -0.56328909105127   -0.57315147330244
O           1.17257967808001    0.89721252516517    1.64365557903916
H           1.31540335034642    1.57016702854272    0.94524899247287
H          -0.30231581203382    0.29076795313025    1.96548254610202
H           1.75854534638520    0.16960543166816    1.39786457223332
O          -2.64953060081300    0.44807732638086   -0.06338284979459
H          -2.34955783997547    0.21879852796191    0.82733722639041
H          -2.04978045350270    1.17455379033441   -0.33322040169163
H          -1.98996647583309   -0.65167629960824   -1.11604715618159
N          -0.26864843971685   -2.24681359953054    0.55525171199267
H           0.74228164688643   -2.03711585521928    0.43824938837958
H          -0.43146178443211   -3.22782781009329    0.74818086167979
H          -0.64336270530048   -1.63937234548666    1.31017737291039
