    26
        -50.45363131  Gyration_radius:  2.49763742854 Dipole_moment: 2.030
 S           0.44829618642704    1.65591177904500   -0.63975250110145
O           1.82268852465895    1.17152409208485   -0.76559082881989
O          -0.46558128103694    0.78207680034804   -1.36183225873422
O           0.04284814653607    1.89206521209007    0.72433734647768
O           0.42019276618149    3.05109725454753   -1.37514911060887
H           0.83625083126864    2.83110934436584   -2.20128190472000
O           0.30029083174427   -0.43469674721367    1.97095858337551
H           0.22257240856088    0.52111531032601    1.77087215039563
O          -0.17659039303650   -1.79407294366043   -2.04477111647369
H          -0.92092901118225   -2.10728074654907   -1.52062298299880
H          -0.20614512331398   -0.82078369846303   -1.95976827246205
O           2.02762909456551   -2.66302397567817   -0.94146960176031
H           2.68794372638499   -2.72884266419586   -1.63308794389653
H           1.17752329080006   -2.39394806453767   -1.38711519057912
O           2.40427693623269   -0.76421224525608    0.70462381572682
H           2.30217498718852   -1.58226450628969    0.08947841259969
H           2.27204786696988    0.06508203236217    0.10076916706321
H           1.53665209369066   -0.72725364253929    1.34218430678318
O          -1.71676005706560   -0.88285328629612    0.35589512181365
H          -2.33677367381358   -0.32198635715128    0.86492942421918
H          -1.36071981692533   -0.26603445820206   -0.31140767484921
H          -0.45627117462834   -0.83153546779144    1.46073191651425
N          -2.73464422050717    1.32283740117215    1.60469896705607
H          -3.46882022250876    1.89073991619281    1.20026427361613
H          -1.84447216251204    1.74172508103905    1.34027499504218
H          -2.81368055436737    1.39350458053951    2.61183091623065
