    26
        -50.45363056  Gyration_radius:  2.49753579319 Dipole_moment: 2.024
 S           0.17764523286138    1.61515808103750    0.84534880901063
O           0.69619427126907    0.38927525483627    1.43574011004239
O           1.02087357752296    2.03845659600916   -0.27220985678930
O          -1.22312721811334    1.53199551164364    0.51088865578275
O           0.32196051137450    2.74176136291921    1.93991513469095
H           1.26775179675867    2.81435951011281    2.00450326700206
O          -1.39371443299616   -0.21979511912858   -1.47305636481265
H          -1.57509511644304    0.50919056991235   -0.84436773528451
O           2.25002430827402   -1.49774926917319    0.33514683538747
H           1.59895965692265   -2.20268093364439    0.41404192749728
H           1.84265679699037   -0.73316425171438    0.78776726244094
O           2.53048947533779   -0.92326122309487   -2.19916062621519
H           3.41370199621182   -0.56997916938608   -2.31731257724452
H           2.46127554139711   -1.19714804962237   -1.24323126248104
O           0.66626643002638    0.79065675406944   -2.40844061873501
H           0.84525881226792    1.39437400086449   -1.58790077884374
H           1.41519893188629    0.08553097265063   -2.41024925597364
H          -0.24794476916965    0.29180058202884   -2.13330662643915
O          -0.72385560234975   -1.73395916173007    0.56110874032788
H          -1.60097540049433   -1.66214527948423    0.98961440092154
H          -1.14657312111559   -0.97467650139401   -0.87386805865468
H          -0.21745538191453   -1.00982063385131    0.97545410955783
N          -2.94297313925366   -0.59175702819554    1.67055895992708
H          -2.48594326011394    0.27923617887026    1.40535633083003
H          -3.10189608859612   -0.55861297930958    2.66993384440244
H          -3.84870378857045   -0.60704576519792    1.21772537367563
