    26
        -50.45363127  Gyration_radius:  2.49766157416 Dipole_moment: 2.032
 S           1.07253465858584    1.40559878444091    0.47490956940881
O           1.40805714480337    0.53367156868427   -0.64186606161086
O          -0.03054615289963    2.29550652629882    0.11316922540850
O           0.85289257858868    0.68571707175982    1.70556970060886
O           2.31735107943958    2.34578127791762    0.70879751847106
H           2.29033519340484    2.88374120952981   -0.07469426453687
O          -1.36263695635834   -0.72439614241168    1.33542766151548
H          -0.61203532572297   -0.24144758105823    1.73922571783003
O          -2.52835690174157    0.64438109934651   -2.29795704306107
H          -2.66318178980077    1.39302440067424   -2.88108598163025
H          -1.62707643208903    0.27700111883329   -2.51354897552376
O          -0.10575946928817   -0.24392399436953   -2.71326756782942
H          -0.08445591112666   -1.18020054571235   -2.49006289619304
H           0.49602541217485    0.17787969891573   -2.06881039048965
O           0.33557820428846   -1.91570467123295   -0.26907106899907
H           0.81368690484989   -1.08103298489830   -0.43417636965212
H           0.84630254374195   -2.32059041663167    0.46123471658879
H          -0.91536337768208   -1.31950659849740    0.67509865620208
O          -2.29837651875849    1.24583182572105    0.16017908883629
H          -2.47748544276851    0.99819723507424   -0.82198255353555
H          -2.02821145998736    0.34104281254356    0.67912215188062
H          -1.41106117052806    1.77734517781873    0.16313272970337
N           1.80886392605119   -2.10710854370767    2.02285447874796
H           1.64548331459407   -1.10298190328542    2.07558501076576
H           2.81103597884579   -2.25115257305895    2.01704273512133
H           1.44639995930402   -2.51667384269673    2.87517420207319
