    26
        -50.47229294  Gyration_radius:  2.48065962849 Dipole_moment: 1.997
 S          -1.17577505592273    1.50555156943557   -1.24348284179254
O           0.12692429979625    2.13926896083393   -1.23532454969458
O          -1.37059995329982    0.57315772089339   -2.33691478630053
O          -1.48983877117443    0.90138412244124    0.04766339073049
O          -2.23364038965648    2.66335280383100   -1.47182081836067
H          -2.97205497589563    2.17543196519713   -1.82056834378195
O           0.25900796481089   -1.88600101508943    1.95881220804839
H           0.11201754965616   -2.65405155379711    2.51104178962254
O           2.11546369493104   -1.14222228221856    0.06704123886706
H           1.56593900957492   -1.24326661152037   -0.73312556532383
H           1.59468205352691   -1.53731920046104    0.78948128081282
O           0.36748263351436   -1.32238685310839   -2.03468370316080
H          -0.26360001573702   -0.57273447529680   -2.18552608363346
H           0.67050844068887   -1.58931524042594   -2.90391645190446
O          -0.20603105048982    0.79801861462813    2.41148981482343
H          -0.85335070362664    0.91546864272740    1.68958395786095
H          -0.06760582462352   -0.16473473684136    2.46732894443084
H           1.03517350594758    1.26107468850344    1.52941057529475
O          -1.48145804830005   -1.75895534169334    0.02398421627999
H          -0.96261082865538   -1.92049038206973   -0.77605955380041
H          -0.45471570945298   -1.89990615491886    1.25764235304269
H          -1.63590443914873   -0.79116001422176    0.02514941584970
N           1.70064121650196    1.38151390478040    0.70650309018859
H           1.11815690341358    1.76354144797622   -0.09117130736215
H           2.02429201227491    0.40845385116944    0.42684832316708
H           2.47689648134240    1.99632556924237    0.92061341609385
