    26
        -50.46983300  Gyration_radius:  2.43237730002 Dipole_moment: 4.334
 S           0.83306615233272    1.83670167396046    0.40633661859186
O          -0.17854543674824    1.77012439844697   -0.66116336167982
O           0.34340560382932    1.26600955421495    1.63521049711549
O           2.10415184498725    1.31563933207172   -0.04938008455239
O           1.06724472790833    3.37928834655397    0.67918904095775
H           1.72435404200909    3.59886803592415    0.02707329033593
O           0.42950529268406   -2.03041083078749    0.27467389349367
H           1.19098661648562   -1.81099114349391    0.85046794178717
O           2.33000193706671   -0.73219582601829    1.67116476192890
H           1.84705465741739   -0.33788393674714    2.40260082593784
H           2.41141814941301   -0.00997888219015    1.02059861274404
O          -1.53257340559120   -1.76443150518620   -2.01912103775085
H          -0.71721785725464   -1.34257557650909   -2.33198178942239
H          -1.24456401926719   -2.44503019297264   -1.40115263477275
O           0.82706171299352   -0.33517718130194   -1.88760023309727
H           1.78058609987135   -0.22005478004216   -1.85321845188906
H           0.58450932095818   -1.49210149047659   -0.52164411947520
H           0.46985591031706    0.50069640224538   -1.51851168384041
O          -1.36736757058643   -0.77531546877069    1.80181571744427
H          -0.78867252214437   -0.00803731258966    1.98173146968536
H          -2.08985047768696   -0.21189626527915    0.58627525834718
H          -0.76952650955104   -1.42061540562133    1.35644815139465
N          -2.30433389534870    0.22219123513707   -0.38497067231913
H          -2.16482407879980   -0.53195674171748   -1.10379887202213
H          -1.55559479632443    0.94881948471158   -0.52334883569557
H          -3.23013147894577    0.63031405645040   -0.43769429326685
