    26
        -50.46983299  Gyration_radius:  2.43234150482 Dipole_moment: 4.339
 S           0.07697905965333    1.69215522963030   -1.16740488083471
O          -1.13977528875204    1.47356250786567   -0.36789719588743
O           1.26317312189306    1.63389710546730   -0.35205891981757
O           0.09134169008373    0.83714017718194   -2.33511901575364
O          -0.03050298249624    3.17494465596836   -1.71385470499278
H          -0.55056932422854    3.05881058846190   -2.50195857397907
O           0.90788031505086   -1.88166573888631    0.12394019310259
H           1.56451569727604   -1.63088765889789   -0.55833789105356
O          -1.76625233689487   -2.00938376109830    1.54277386248340
H          -1.98119416859998   -1.85990327263825    0.60890556163919
H          -0.93733184517994   -2.50018353782747    1.53653578540519
O           2.30521773048986   -0.56980058019808   -1.76646723380584
H           2.76864277006597    0.11406848470417   -1.27532340505375
H           1.52125799660322   -0.11578066193848   -2.12812448714379
O          -1.47685369100940   -1.05486868595186   -1.03252904256481
H          -1.25180706931973   -1.10656982028602   -1.96544090272420
H           0.05498557756187   -1.65856908374296   -0.28924180636284
H          -1.44319170708575   -0.09572627047668   -0.82913218996805
O           1.57198893764868    0.08810636096327    1.80178469306039
H           1.66855674233653    0.75739082966979    1.09574127504705
H           0.11425042768298    0.35873270843269    2.14782410618984
H           1.47140354880285   -0.75985940403114    1.30880818797285
N          -0.96026272441216    0.49502450134716    2.08193342961330
H          -1.11043575622884    0.99562886530651    1.16834244149247
H          -1.33804969987135    1.02332741906494    2.85952422763250
H          -1.39396702106408   -0.45959096808132    2.00677647630826
