    26
        -50.46983305  Gyration_radius:  2.43236013478 Dipole_moment: 4.336
 S          -0.17021056977423    2.04458781381152    0.15416442537063
O          -1.18676895352419    1.33614161346642   -0.64089380744821
O          -0.04991710971697    1.48631333403121    1.47676887277346
O           1.07256273878369    2.16231718092654   -0.57834915327884
O          -0.71523422157965    3.52156205128020    0.32790326333129
H          -0.40739349545603    3.94147821847935   -0.46838615231901
O           1.45543483551356   -1.48901959375522    0.21189067709315
H           2.08995246576433   -0.84265082962726    0.58488931348069
O           2.64542517402784    0.76206975610257    1.08584794406176
H           2.21678820373281    1.32945640475842    0.41813162144072
H           2.17996379196370    0.96476889735584    1.90190094858234
O          -0.76122136243609   -2.55703185921221   -1.55574270303107
H          -0.35701686809379   -1.83623353755710   -2.06339403497260
H          -0.05156613930756   -2.91013297974460   -1.00822582869199
O           0.50068748656312   -0.14497066514900   -2.02179132542861
H          -0.15685802763484    0.44715812132590   -1.59814745464808
H           1.24525849777538    0.43043053722465   -2.21716853365138
H           1.15490572180983   -1.06328085087489   -0.61053095354474
O          -0.39780853341498   -1.08707130545394    2.09325441052322
H          -1.52469865578977   -1.13299082623339    1.07094104408256
H           0.34810090082252   -1.40706240473037    1.53337095622931
H          -0.27415676966048   -0.11746654857533    2.11330383655357
N          -2.11356637477937   -1.00430498779867    0.16849365365989
H          -1.74712399277479   -1.68352038486823   -0.54519656472111
H          -1.88812304350902   -0.03031689963231   -0.16053995641925
H          -3.10741567931497   -1.12023021555336    0.32750550097545
