    26
        -50.46983303  Gyration_radius:  2.43245522891 Dipole_moment: 4.332
 S           1.94570723579719    0.17511918772309    0.64591284044226
O           1.62216634354281   -0.95496451056315   -0.24049988185233
O           1.53014066708881    1.43071082267310    0.07482178758433
O           1.47862206881257   -0.07170459044707    1.99340344490724
O           3.52689638947416    0.21200533533053    0.73270285814890
H           3.70098644227144   -0.40606596484717    1.43476866910944
O          -1.91567534426923    0.64120302899607    0.54873979858578
H          -1.54157683373377    1.24007947471411    1.22763167015606
O          -2.18772401577607   -1.83534355376754   -1.17596601306505
H          -1.74720786778048   -2.13681206453967   -0.36618864754139
H          -2.73562409344321   -1.09106088587825   -0.90414940364673
O          -0.24969651604974    1.97239716659821    2.19195999376521
H           0.20769739029996    2.58377597414553    1.60831086425973
H           0.36769893737999    1.22303490690712    2.28563843089714
O          -0.54779520878128   -1.72328674821627    1.04321528917012
H           0.29934433514549   -1.53015982475183    0.58760306216455
H          -0.34265369564760   -1.62097313264609    1.97653601993442
H          -1.49570534948205   -0.21490699861693    0.74536111728702
O          -0.60730116778919    1.77260570211363   -1.48705936793196
H          -0.30710865323979    0.42002006530434   -2.11820290791003
H          -1.25678792071068    1.49496122490245   -0.79911734231660
H           0.22781227597868    1.87730358116632   -0.98967047567824
N          -0.05045930109901   -0.62455206451159   -2.26138285170666
H           0.25868870082132   -0.82796901178417   -3.20451923627707
H          -0.89127280311636   -1.19462092586166   -1.99097045185284
H           0.71082800431589   -0.81079620416387   -1.55887926663527
