    26
        -50.46983287  Gyration_radius:  2.43239384033 Dipole_moment: 4.329
 S          -1.27208054275016   -1.58356982440615   -0.32669103728171
O          -1.72738531619679   -0.52062603455937    0.58442046122395
O          -0.86173770320840   -1.04893980874251   -1.60001317417070
O          -0.30289603086053   -2.44215814715394    0.32019425701845
O          -2.54341458576348   -2.48874371929977   -0.59759156753330
H          -2.51543228503928   -3.09266015740534    0.13705974835395
O           2.03626407296798    0.45539157903731   -0.15924297350614
H           2.20865781013341   -0.38923911978837   -0.62433934508170
O           0.77509699274262    2.37180055704595    1.81969032410778
H           1.56342237430639    2.33215186764076    1.26740546599990
H           0.71174537150472    1.49837937696929    2.23659569813805
O           1.78513707289342   -1.97055008271945   -1.29935771941430
H           1.11264399406370   -2.27549007627981   -0.66199641244660
H           1.28752162387466   -1.79666906436846   -2.10297254525524
O           0.49317654375178   -0.36986233689695    1.99607322267994
H           0.79440089670582   -1.27701597072729    2.09601425081555
H           1.54926700677426    0.18049783971257    0.63775390213803
H          -0.38093445075456   -0.45308286677175    1.55835505040017
O           0.27346104263602    1.33911637645640   -1.96196398147381
H          -0.64160399116216    1.89126386451263   -0.87769941964869
H           1.07081422104406    1.13525866521576   -1.41910950286901
H          -0.15996836999217    0.46990787801746   -2.07438486438462
N          -1.20513424796725    2.01384355068401    0.04149781466746
H          -1.96847547237225    2.67368013396825   -0.05003324112363
H          -0.52573364184952    2.29899247394083    0.79132135891515
H          -1.55681237547896    1.04832306590918    0.26901423973954
