    26
        -50.46983304  Gyration_radius:  2.4322809067 Dipole_moment: 4.332
 S          -0.11339654718526    0.92263256412814   -1.83518020818566
O          -0.88554793374936   -0.31690608709299   -1.64903934974990
O          -0.41029640670557    1.88934229693211   -0.80919475439019
O           1.29307033315675    0.63562613064781   -2.02061779701776
O          -0.61623029392661    1.53891581679533   -3.20487522774245
H          -0.06857034283000    1.08738525163304   -3.83853660775989
O           1.25953911410954   -0.05586557345455    1.66919734543676
H           1.78660004356480    0.69263172467759    1.32057748222654
O          -0.39048468049607   -2.59458694330190    1.62884688044592
H           0.11172504421240   -2.07836275415035    2.26869806284882
H           0.17650704259724   -2.64916856734087    0.84389866933081
O           2.24521553251299    1.92322811176290    0.13346270616111
H           1.57167229046981    2.60712823873777    0.18139590485550
H           2.05686313284212    1.45941347493344   -0.70371006836900
O           1.06114947274256   -1.71301110021772   -0.54940787242089
H           1.23234592253983   -0.68102518446974    0.92327841988663
H           0.33660610643563   -1.26358759453525   -1.03470211139202
H           1.85595970772860   -1.46624539758623   -1.03004617625248
O          -1.04130922506329    1.30118393952475    1.71650000116674
H          -0.88438645400979    1.74273193777305    0.85845213754061
H          -1.82169332637109    0.10228368951549    1.19506005958772
H          -0.18015410152344    0.86473273137562    1.91651047912720
N          -2.11442851342416   -0.78591326717106    0.64473845125385
H          -3.11558105024051   -0.94117145500462    0.65233027070203
H          -1.58693795593579   -1.59759043467055    1.05468002217846
H          -1.75823690147410   -0.62380155944504   -0.33231673945712
