    26
        -50.44961616  Gyration_radius:  2.4972936279 Dipole_moment: 2.632
 S           0.08639343459679    2.02082919102669    0.21673410888857
O           0.78163889013556    1.63666568251443   -1.01756010917781
O          -1.31917332856403    1.65239080913703    0.14369930463843
O           0.76199993010172    1.55045711430330    1.39301022569365
O           0.11856092708027    3.60259824307807    0.25060179643441
H          -0.38945157774059    3.81221167324605   -0.52547905415422
O           1.17746820608097   -2.02864344861379    0.69385863811130
H           1.82671864413729   -2.63502148213040    1.05371747877982
O          -2.33594689002713   -0.11961390364339    1.85155426441690
H          -2.00763674444950    0.54943688035449    1.21292543713645
H          -2.88145506449650    0.35901643089649    2.47731456672868
O           0.74336338981523   -1.01940766844515   -2.99796535003772
H           0.66450848167831   -0.19466233935779   -3.48238191498041
H          -0.06550444010405   -1.05726519338109   -2.38231273974377
O           2.15541157445476   -0.42304645451800   -1.01277027154797
H           1.71185164626334   -0.76604271533433   -1.89992695765400
H           1.66761509414720    0.49915540312851   -0.91058259531866
H           1.78929772401865   -1.05191541065802   -0.27744938182387
O           0.17971813419908   -0.71128937315966    2.64633955564996
H           0.49617783450038    0.17265381333387    2.37356822789405
H          -0.78567755767227   -0.67347390315282    2.49214997417851
H           0.78245395620578   -1.53944993017497    1.49141120153345
N          -1.12454760088006   -0.93425195145318   -1.17472009981294
H          -2.07595132986636   -1.21737364006034   -1.37347144603126
H          -1.16019440587641    0.02644370106455   -0.83559284927087
H          -0.79763889773676   -1.51040152799860   -0.40667202053033
