    26
        -50.46983300  Gyration_radius:  2.43245701973 Dipole_moment: 4.332
 S          -0.38606249770598    1.28620280117583   -1.55898376447069
O           0.04016605056410   -0.08225455993349   -1.89500847429922
O          -1.51826072016822    1.28344132152860   -0.66814741300100
O           0.73733459870949    2.08756158143573   -1.12235946611314
O          -0.87591304099039    1.92894813142951   -2.92127337246304
H          -0.06250711161098    2.26041054664023   -3.28706355452441
O           0.46822076137649    0.07737526185910    2.03833794292272
H           0.29814885139797    1.04189194624142    2.06003608631853
O           1.38848249397371   -2.59358236566462    0.94118007644598
H           1.17309398595306   -2.21061743567706    1.79847054672870
H           1.94240083230653   -1.93211999958628    0.49811680267639
O          -0.10406554991117    2.62123589146706    1.36972940068770
H          -1.04843205922821    2.60399050998975    1.19198819732396
H           0.30709072147840    2.55412107383152    0.48769068536609
O          -1.98842385008374   -0.55892119157643    1.20477077201092
H          -1.16845839338085   -0.36632086215949    1.71742944909080
H          -2.04711250699991    0.18412011958614    0.57204676958004
H          -1.45051692048302   -1.61042530288116    0.24458821172709
O           2.06913478005546   -0.17966901379955   -0.21529664676791
H           1.08270787076105   -0.02783946778373    1.29050457627552
H           1.38318925536618   -0.15637660576447   -0.91633289926689
H           2.47175583409950    0.69228762202462   -0.24992321814283
N          -0.84183979507143   -2.13689866068610   -0.48349272443307
H          -0.54067195339634   -1.39427015798971   -1.16569143017328
H          -1.34307383289289   -2.88480483174705   -0.94810454562339
H           0.01361217586753   -2.48748636191877    0.01678799210959
