    26
        -50.44961613  Gyration_radius:  2.49717175102 Dipole_moment: 2.630
 S           1.51415942239170   -1.07106173400547   -0.83573247389821
O           1.59589272160324   -1.17740923497728    0.62587821056700
O           0.26474754481142   -1.64005692884311   -1.31735061744428
O           1.77716960441493    0.26129282922803   -1.30165970655162
O           2.66094043784922   -2.00593304990221   -1.39720280567279
H           2.37192704383599   -2.85685721671282   -1.08622987050148
O          -0.53986063425194    2.28003550197181    0.70309200717788
H          -0.47714182657737    3.20891121118674    0.93113821987517
O          -1.51928306270481   -0.10541692534533   -2.56354569412855
H          -0.88388331650101   -0.71094449670190   -2.12434220078543
H          -1.49615281120844   -0.32971466116622   -3.49488484253776
O          -0.52211263470831   -0.71054018038676    3.13065870391371
H          -0.04483574309423   -1.54039188778336    3.19859860440309
H          -1.04786708439818   -0.76402234207067    2.26152746472095
O           1.09752816665278    0.82777773646904    1.99009816937191
H           0.45045284813542    0.28781412141875    2.61549268823319
H           1.42069270849169    0.05867502263111    1.35551209472886
H           0.47509266112786    1.44429506769824    1.43982965036511
O          -0.09703525771813    2.06591746467740   -1.80705234513109
H          -0.76076294194220    1.43611323099095   -2.15350677609153
H          -0.38469542608369    2.22936670999340   -0.29933280008213
H           0.72078264717395    1.53395794122553   -1.74304324517375
N          -1.57101185410799   -0.70786897228765    0.73894016268498
H          -2.45665296047949   -1.15833095307059    0.54520900871608
H          -0.87922936069264   -1.12159634641099    0.11488367396974
H          -1.66886087201943    0.26598810217875    0.47302471926875
