    26
        -50.45760691  Gyration_radius:  2.49457254021 Dipole_moment: 2.736
 S          -1.03901332884699   -0.96816173947973   -0.09710148485481
O           0.31803736277752   -1.46897920834646    0.18303666663750
O          -1.51680528332404   -0.14898160541190    0.99985749234916
O          -1.07026498888678   -0.26011972673421   -1.37116458834681
O          -1.96009833940107   -2.20446318267863   -0.24927988304657
H          -1.89341060981189   -2.60985333849743    0.65720239953711
O           2.51128768763097    1.47534958156827    0.78578983777084
H           2.83317401302846    1.21268875112735    1.64949215919120
O          -0.94819107799679    2.38778631157401   -1.48479241127677
H          -1.80321504143964    2.80548822295834   -1.59595723144142
H          -1.12026850818829    1.42199746923476   -1.43267203575889
O           0.97898861942071    0.59903493510533   -2.80111840017425
H           0.79702154568887    1.53638945920254   -2.66415786279063
H           0.16315855360533    0.14448331577746   -2.49935924940384
O           0.00428277775283    2.03211507826427    1.05520012587313
H          -0.28020836108664    2.41376556526256    0.20583715505737
H          -0.55965390842671    1.23824560474131    1.16784265762727
H           1.55151174481040    1.74815001131354    0.91535588851190
O           2.28300383662242   -0.41118593505285   -0.87420183516577
H           1.46645218081622   -0.93619680074771   -0.43837210593100
H           1.88612538797722    0.00980653163111   -1.72827972591642
H           2.46692567932569    0.36703722698987   -0.21164041624957
N          -1.39521037942394   -2.68519477332822    2.24312900154891
H          -1.49200836882603   -1.67758159222047    2.33165224834249
H          -0.40555595958256   -2.88959144065719    2.18617525427625
H          -1.77606523420878   -3.13202873156673    3.06752634362626
