    26
        -50.46061515  Gyration_radius:  2.54380875192 Dipole_moment: 5.983
 S          -0.16463054829023   -0.02465079363753   -0.46984238454960
O           0.23727033142866    0.17988014414187   -1.83778920455024
O           0.95400383033339   -0.53612639648478    0.35422022120838
O          -0.58705069178967    1.32939388254733    0.15708212991077
O          -1.32535735855709   -0.89246478433974   -0.31271583198352
O           0.24404695939411    2.57118082018938   -3.00418471944165
H          -0.64829732934728    2.76318756075930   -3.29512929435224
H           0.23769822851455    1.64017582844764   -2.69845531828912
O           2.82933422545864    0.88094171966990   -0.92740339030695
H           2.28720652922239    0.27930678503131   -0.38604042923625
H           2.58236107644525    0.68450136786257   -1.83587124067531
O          -2.00064841682945   -0.06659737432592    2.07680731132599
H          -1.94571291765932   -0.34424183117031    1.13194257518845
H          -1.82450197051295    0.87855555994889    2.05995089903392
O           1.20661009399560    2.95486725564391   -0.51904503622652
H           0.13669703700636    2.03156279842128   -0.07140689849453
H           1.98225140890998    2.35073398340639   -0.58501612339681
H           0.93206670153078    3.10885361363635   -1.44562929385881
O           0.04068719088950   -1.55449052056689    2.41650736761060
H           0.54837750428238   -1.11060667527929    1.61026274897208
H          -0.76852309759039   -0.94501072545810    2.52098233583164
H          -0.38196305610439   -2.43696521692898    1.92102403175686
N          -1.02111475597435   -3.32968123409548    0.98913894864021
H          -1.25332954840200   -2.61415548697949    0.29030744518438
H          -1.87519441867970   -3.77468415675870    1.29885525348305
H          -0.42228698768048   -4.02346610368109    0.56144786720557
