    26
        -50.47126132  Gyration_radius:  2.42925664908 Dipole_moment: 4.308
 S          -0.60264743157180    1.60213050174058   -0.84978955772095
O          -0.22457403746335    0.47044907112307   -1.68970893752813
O          -2.04351661871235    1.64985008726983   -0.64862315345525
O           0.14706553357125    1.64170279452793    0.38552242071820
O          -0.22682025547869    2.90817233729900   -1.65378157033191
H          -0.91598563397307    2.94247984705449   -2.30863006058679
O           1.17921401902784   -1.71990994857126    1.37392762688503
H           1.79218547817036   -2.34655797392263    1.75925675085676
O          -0.76212594969013   -1.88466092217422   -0.54986677392614
H          -0.02968647891900   -1.97815106492627    0.08836808652975
H          -0.53374863424227   -1.10605528461384   -1.09836756649887
O           2.30087492800906   -0.08428111092273   -2.31232111324743
H           1.36863663763708    0.18510459179771   -2.18232323169136
H           2.27374024101795   -0.94333863628893   -2.73711404671612
O           2.47701143636550    0.28570513781145    0.37658625413610
H           1.74565704407191    0.92986223052855    0.41205998076704
H           1.73969186361611   -0.97662475450378    0.99385152416742
H           2.64659850742917    0.15299999991682   -0.57503695259125
O          -0.47170254236743    0.13397075283310    2.54926034783172
H           0.14399165067398   -0.59433035720596    2.34272102451283
H          -0.17759134748630    0.86673261855920    1.97778327200656
H          -1.76640275743658   -0.22991539334680    1.71269500733252
N          -2.40445746887690   -0.43825920161368    0.88197956108090
H          -1.90122197830508   -1.18073989477656    0.30378985082175
H          -2.41759225643235    0.43446967735010    0.28527455607570
H          -3.33659394864137   -0.72080509494595    1.16248666057497
