    26
        -50.44961618  Gyration_radius:  2.49727813782 Dipole_moment: 2.631
 S           1.62519563741160    1.09128627486845   -0.55266379354526
O           1.92448432233077    0.49077648312675    0.73825165758181
O           1.37802980403940    0.05011520416541   -1.55728356806086
O           0.58196432421069    2.07721092937271   -0.51997136843144
O           2.95340437280389    1.81964730175521   -1.01022294836090
H           3.58165735917906    1.10832271166807   -0.94999094340691
O          -2.44014828361748    0.02558493870155   -0.16373571073145
H          -3.34120009847624    0.24367460325706   -0.40726398584240
O          -0.27629184728766   -2.82060269050427   -1.59631594134212
H          -0.15441266453085   -2.52512998293594   -0.63055767002821
H           0.60863787725467   -2.89770151728097   -1.95964593144878
O           0.32186153689934    0.91288402871262    2.82251178061835
H           0.94849974414749    0.74382150812553    2.08631585918163
H           0.77157091146120    1.51368395546333    3.41841215067690
O          -1.48539790549929    2.01019986877422    1.13724708983933
H          -0.78057534832662    2.24655717484114    0.50219110810946
H          -2.09724218476544    0.81840464330806    0.37053783811065
H          -0.99945868117367    1.63577390282074    1.89937893960846
O          -0.96303486266860   -0.47680879380587   -2.16691715923285
H          -0.00011368604608   -0.11734449272466   -1.96109888390845
H          -0.80051059479741   -1.50734974638967   -2.05283347874197
H          -1.56897226173367   -0.21794998437348   -1.36936007328672
N           0.03075534783103   -1.71814097260724    0.75106439167468
H          -0.83231906141657   -1.22241121256173    0.94622206549762
H           0.76429843941178   -1.01708874113667    0.65285245159356
H           0.24931781335952   -2.26741538463232    1.57287613388046
