    26
        -50.45760679  Gyration_radius:  2.49445013135 Dipole_moment: 2.732
 S          -1.07857827699919    0.86495625128645   -0.33859721921654
O          -1.37654103664995   -0.26227967889747    0.56209939739461
O          -0.16354740295776    1.79501628203440    0.29409104104677
O          -0.57700833174706    0.37887947161855   -1.61836064555293
O          -2.41916627702694    1.58565975486503   -0.62752016633443
H          -2.67452361642888    1.89443063552649    0.28359215223575
O           1.84048596301254   -1.88902410337925    1.46566519723309
H           1.74583292027656   -1.82555798032316    2.41727179335152
O           0.27873653197120   -2.05006896585174   -2.21011690705666
H           1.20070199375644   -1.79305695281730   -2.33068315110989
H          -0.21232960558816   -1.20047021781774   -2.19341834191302
O           2.02228030752661    0.31478854291926   -2.14702244229436
H           2.32320963333969    1.05459923553109   -2.67624622429793
H           1.06216970925950    0.45847120934018   -1.99691620380122
O           2.15158899400273    0.51647041710504    0.57866960508252
H           2.02161066052451   -0.95482470573101    1.13907194906967
H           2.37093496343980    0.42857373761540   -0.36584010543605
H           1.32742590617681    1.04697429489379    0.58998911037792
O          -0.28607331323635   -2.45255244933407    0.22961665816680
H          -0.82431664814986   -1.54693610126196    0.37969058733660
H          -0.04243177205464   -2.43899980445370   -0.77280591265123
H           0.59763494675939   -2.31153362150781    0.75635077952269
N          -2.45575367898987    2.11729919667531    1.91779135594110
H          -2.55659574841836    1.19224998733479    2.31597312200882
H          -2.81266022501963    2.79864903718006    2.57556877706023
H          -1.46308658699433    2.27828652752739    1.77208577371834
