    26
        -50.44961588  Gyration_radius:  2.49734946903 Dipole_moment: 2.631
 S           1.23093480087368    0.71158333392407    1.45415676197261
O           0.16533907778766   -0.08662711956908    2.07193660383670
O           2.03571783584113   -0.11495047371614    0.56767105584941
O           0.73219375422735    1.91535391868066    0.85134871111295
O           2.18864866654268    1.13548023687785    2.64056471254480
H           2.49539379687223    0.28642727436395    2.93946321709430
O          -1.95189307898007    0.65961164495757   -1.31646663419550
H          -2.72011368815665    1.12779346615036   -1.64724581216577
O          -1.93309053060335   -2.41646695302526    1.00210833312671
H          -1.19730280139051   -2.29579709484752    0.31001641078136
H          -1.48827322232800   -2.66223189228803    1.81620736515015
O           2.14068233592607    0.41394859850903   -2.04000260153190
H           2.14439620297092    0.19236766793642   -1.08389112074156
H           2.99918632389558    0.79753324486176   -2.22481675673612
O          -2.12613343006034    0.07979069202524    1.14939748273890
H          -2.05394265299242    0.37139028321334    0.15943805046262
H          -2.22725817051272   -0.96416865197133    1.11162796146406
H          -1.16919244478076    0.15419259483375    1.57082414000616
O           0.09170187777698    2.14658050113900   -1.71019928075077
H           0.79935717060755    1.56298487701962   -2.05058490277698
H          -1.15644362825110    1.26130474244677   -1.50826675684592
H           0.32958573857756    2.28162636603979   -0.77152973735525
N          -0.02803651777715   -1.75772336595433   -0.65803984988867
H           0.67470310319923   -1.25672765793378   -0.11541631273418
H          -0.43541132596351   -1.09240938238357   -1.30623483990297
H           0.45925079669864   -2.45086685129227   -1.21206619051240
