    26
        -50.44961614  Gyration_radius:  2.49728373717 Dipole_moment: 2.631
 S           0.78474608786926   -1.39219994924784    1.25816866902901
O           1.75907597279930   -1.16331110518192    0.20229370683354
O           0.53660939017570   -0.15267974260213    2.00406925212141
O          -0.43056451405726   -2.01701774762941    0.81759539976538
O           1.48026766201504   -2.37600215442714    2.28407669435436
H           2.28409991806324   -1.90429150872349    2.47297965521775
O          -2.14792724519601    0.72086473855302   -0.92026769278278
H          -3.08602478820805    0.82647344385142   -1.08630139653833
O           0.10759836449758    3.02860206000881    1.18190788487129
H           0.74228786011678    2.91128129555699    1.89219883423581
H           0.49227440562051    2.53193549652024    0.38180535802650
O           1.07760919829765   -1.48883250093720   -2.35125505235240
H           1.48831462941374   -2.29723999449656   -2.66124813780810
H           1.37666713449675   -1.37283858449523   -1.42368865778699
O          -1.51335828258008    1.14173534963595    1.50203608173014
H          -1.80154680736401    0.92415806655764    0.53259069885621
H          -0.73744688287826    0.48413007302026    1.75548978847869
H          -0.97341413875523    2.03830062666888    1.42299058308636
O          -1.50738880874964   -1.66649335217285   -1.57869744975445
H          -0.66230051254498   -1.60338092318783   -2.06756287674423
H          -1.24186026957057   -1.97269295696170   -0.68893549078064
H          -1.91902714769304   -0.22424096945996   -1.21311531539818
N           0.91880284198877    1.45793020287146   -0.74027606290543
H           0.09091050338203    1.20859929934254   -1.27051761864700
H           1.26078658089291    0.60522864365646   -0.29856093065255
H           1.62080885796389    1.75198223328200   -1.40777592444981
