    26
        -50.47126091  Gyration_radius:  2.42921513234 Dipole_moment: 4.309
 S          -0.29124972150516    1.70399878654600   -0.81317819053428
O          -0.10868996009341    0.54270761282239   -1.67741117859393
O          -1.70330497805902    2.00542007222430   -0.62809133731248
O           0.43314275399781    1.57906384183101    0.43159780516693
O           0.32513031159985    2.94028281301383   -1.57808345597269
H          -0.34466579481404    3.12521002058472   -2.22765049254674
O           0.82960636951402   -1.93760924956733    1.34039750355576
H           1.31422996043356   -2.67287385362100    1.71642727958648
O          -1.07849601596148   -1.70535479389091   -0.60954540176035
H          -0.38529750480752   -1.94441720686213    0.03453476497265
H          -0.70515055581339   -0.96738454258882   -1.13415214903615
O           2.28751366392499   -0.43682587807781   -2.28658251150541
H           1.41613955595607   -0.00877341914586   -2.15976091986241
H           2.11480817779096   -1.26510055622437   -2.73737955542317
O           2.48149157741950   -0.17326594677071    0.41368043808436
H           1.87696278291879    0.59074143169471    0.45792525718264
H           1.52023170945434   -1.29766998150005    0.98709019643047
H           2.64076450159638   -0.31036735557941   -0.53908296510422
O          -0.48189350797956    0.15324290447710    2.54482016242365
H          -0.00318176086673   -0.66846001470397    2.32601261169767
H          -0.05177905382808    0.83510066685339    1.99693741564987
H          -1.80651860982722    0.04826711576803    1.68356702188624
N          -2.45809418961790   -0.02182008831872    0.84016317500081
H          -2.30481101337566    0.85338330803036    0.26724452378259
H          -3.43022247453319   -0.13897123030373    1.10212370575829
H          -2.08666621351691   -0.82852443669931    0.24839631648211
