    26
        -50.44961598  Gyration_radius:  2.49717537559 Dipole_moment: 2.631
 S           0.71407297793791    1.82765393040587   -0.53310204422059
O           0.91770652070195    0.88818669426915   -1.64220297755533
O          -0.70497249175435    1.98107862762119   -0.25132793706200
O           1.51387394253779    1.50055247763771    0.61341719222437
O           1.20432616729406    3.23362025801549   -1.06926521721987
H           0.59367783539278    3.37971657258597   -1.78346306611030
O           0.68637044013219   -2.02871910084942    1.17942718552749
H           1.20547247078443   -2.69922560767769    1.62633139184484
O          -1.69363555586678    1.25636941518162    2.11257201789353
H          -1.89163185745563    2.05584808024614    2.60241421435038
H          -1.37012846965151    1.55136815707725    1.23414978591702
O          -0.39998508022297   -2.02250059252267   -2.51589156217149
H          -0.36434008157692   -1.39726056631972   -3.24314009265957
H          -0.99329929753177   -1.59275279870432   -1.81013705660792
O           1.59568971613695   -1.43401875597613   -1.11550770402313
H           1.43693731190114   -0.41016653872789   -1.27472717104643
H           1.27292459070938   -1.65390013899589   -0.15754950066046
H           0.85455172038598   -1.83235146096517   -1.74291417499218
O           0.66376217969148    0.05350727949361    2.66496400085486
H          -0.25510290297854    0.38943280478990    2.65922360418699
H           0.67475624939945   -1.22623358066588    1.80178676050601
H           1.13557325097120    0.64893604639424    2.04955492952554
N          -1.61450763047728   -0.76300788937843   -0.57714180572846
H          -1.27418744840373   -1.17537182005647    0.28477701352632
H          -2.62429050723956   -0.73169471124647   -0.51213403417078
H          -1.28361406081684    0.20093321837299   -0.60011373212761
