    26
        -50.45760686  Gyration_radius:  2.49448450784 Dipole_moment: 2.731
 S           0.09917450394650   -0.21262503067577    1.40375516002957
O          -0.44548499961579   -1.31626162907827    0.59373787153584
O           1.48588217437623    0.03562721929001    1.06029452192117
O          -0.72754299842859    0.98032924156739    1.26533344492383
O           0.01151591371582   -0.64870673131014    2.88775477734103
H           0.60939019358444   -1.44448398798240    2.89244171620050
O          -0.04694137100208   -0.40761290050930   -2.98868201076891
H           0.44176532371337   -1.18708163805349   -3.25717481850057
O          -0.06071380581118    2.94108109576641   -0.39283421330754
H          -0.23608992986542    2.27612073470941    0.30869914458481
H           0.36737134291000    3.68035811610145    0.04088970888385
O          -2.59533513331114    1.46040229747753   -0.54119676797329
H          -2.10752232351906    2.16055854919172   -0.99108385643985
H          -2.10895143757727    1.32413818835586    0.30032206784133
O           1.50363976465739    0.95400159523768   -1.43618829679791
H           1.04652635702447    1.79764130141134   -1.27049446251090
H           1.61226155240818    0.55576624666923   -0.54713901622058
H           0.58684160003750    0.14399445668437   -2.43528227385041
O          -1.90654032350775   -0.84617228166679   -1.34045653828083
H          -2.30366919784758    0.07770905922525   -1.11011179768565
H          -1.19974336875087   -0.69286104945378   -2.08567095621025
H          -1.32907782940237   -1.10291397091937   -0.48428592805003
N           1.67833712451916   -2.53240981461624    2.22772832463999
H           2.40219497100306   -3.11893414325376    2.62314082336734
H           2.10738705734112   -1.79087337903767    1.68131659968290
H           1.11532481933084   -3.08679154520587    1.59518673564395
