    26
        -50.44961618  Gyration_radius:  2.49728453323 Dipole_moment: 2.631
 S           1.03792231191796   -0.29145220858337    1.72506395539760
O           2.00816005703145   -0.01218872540145    0.67752101587529
O           0.12624076190808    0.84614208332257    1.89563188683352
O           0.33664071118710   -1.53431160602222    1.56729186836602
O           1.86634732687757   -0.38058943962435    3.07038848971004
H           2.32768375084589    0.45085167551068    3.05623631583144
O          -2.00885866417535   -0.78508125429232   -1.15414088602026
H          -2.84268536908520   -1.21197145949390   -1.35705976935649
O          -1.47041994073337    2.89691528345510   -0.15962931832147
H          -0.75268266779798    2.40097762546830   -0.68270754290961
H          -1.00855504201931    3.36088683294991    0.54217139369162
O           2.07479552966930   -1.50425606306925   -1.52705362998081
H           2.85152401504752   -2.06321950585649   -1.47681683332511
H           2.09674975341512   -0.93928209409875   -0.72480655178167
O          -0.26917200273796   -2.62118464940564   -0.77296283606387
H          -1.33515247127687   -1.53529297918200   -1.03285596882791
H           0.54338415207332   -2.33559749995335   -1.23705924995162
H          -0.08499102364508   -2.42364368990353    0.16669829382252
O          -2.13215434977293    0.71692069078368    0.88931152549830
H          -2.03447393786848    1.66756804272211    0.45550697864831
H          -2.09131394315931    0.06002975159125    0.09115531384581
H          -1.21705762886488    0.65386160059854    1.39672923380450
N           0.32013336236613    1.34866377465357   -1.26296683375788
H           0.94358950242566    1.68651039783327   -1.98545316096799
H          -0.18701352540544    0.56150195979267   -1.65269648784606
H           0.90135932178201    0.98724145620493   -0.50749720222038
