    26
        -50.44961594  Gyration_radius:  2.49733583977 Dipole_moment: 2.631
 S          -0.60705340930041   -0.12937057265596   -1.93683513827337
O           0.22347481490642   -1.29182838328764   -1.66193641525501
O          -1.78499115224958   -0.12262856414775   -1.06123773113055
O           0.09780689837160    1.12115451455500   -1.91388809620759
O          -1.16659785494195   -0.33286730896196   -3.40308545794228
H          -1.56834030837015   -1.19146642433207   -3.32735989556705
O           0.62857655019366    1.66299054687426    1.67872611794900
H           0.77390698448205    2.48908336922324    2.14264125124485
O          -2.32289332877188   -0.76831411307278    2.14345596301268
H          -2.94644216424274   -1.21258049837415    1.56477437793849
H          -1.40507278134827   -1.12449021231905    1.88723020233469
O           2.71206470381768   -0.98661755095991   -0.76487835720595
H           3.30874806809386   -1.19403264075493   -1.48547541419884
H           1.80705510855006   -1.14579041488196   -1.10964732983808
O          -1.77652015081659    1.35489125292999    0.92530265905266
H          -0.79247867342909    1.52447789353565    1.19591528808548
H          -1.76873370038124    0.85420731499614    0.00435423563452
H          -2.09357479707659    0.57577839337838    1.55294259112086
O           2.17952827000294    1.63213208080068   -0.35498592200525
H           1.48362261582726    1.61945206726072   -1.04164875566800
H           1.27298120854246    1.66856082069825    0.89369203621251
H           2.56697710079173    0.73470042705621   -0.39617397709295
N           0.04144531013104   -1.40928597491088    1.23870732485574
H          -0.02420097053286   -1.41337681860625    0.22139285111241
H           0.50188853901990   -2.26821496288926    1.51270545559215
H           0.65882311872720   -0.64656423115524    1.49531213623399
