    26
        -50.44961589  Gyration_radius:  2.49733185981 Dipole_moment: 2.630
 S           0.06398295126644    1.92215683458540   -0.66168888104382
O           1.24398393567529    1.24439410328865   -1.17637953182606
O          -1.15610336212616    1.27931745997092   -1.16409745279370
O           0.04856171368357    2.08376508622922    0.76477984286190
O           0.07954675554459    3.36844364970129   -1.30385086053110
H           0.13388208462434    3.15640388765025   -2.22927825713179
O          -0.71306086603162   -1.31181896070812    1.93638223978078
H          -1.10965095298106   -1.58174394485677    2.76619726098245
O          -2.14100358253665   -1.85372377662802   -1.60003433473714
H          -2.29739944578631   -1.30369462964705   -2.37076953634885
H          -1.13443094110462   -1.84457409751172   -1.45299325939375
O           2.94504690163744    0.05104482904855    0.48898178443230
H           3.73367881040098    0.59326624461523    0.53746074143594
H           2.35443991123191    0.49120529089765   -0.15962093384993
O           1.13572580444184    0.37259482680926    2.47202400422212
H           0.74004375794232    1.14083086057335    2.01463607492169
H           0.03053859899684   -0.66496560050999    2.18175652846205
H           1.90117015746549    0.13372264274245    1.91146930783400
O          -2.38030575150685   -0.26971508283019    0.32972172642023
H          -1.70905822445603   -0.64967488809741    1.01923236852922
H          -1.89121774440213    0.49057386307953   -0.20098996960973
H          -2.43765664217210   -1.00475969502776   -0.41723453960423
N           0.38389492024967   -1.52961253682292   -1.01748051614440
H           1.10879914370846   -2.07303269979920   -1.46919997647990
H           0.46750657153825   -1.69410114305114   -0.02013700908177
H           0.59908548470155   -0.54630254370128   -1.17888680131030
