    26
        -50.45606797  Gyration_radius:  2.5787939022 Dipole_moment: 2.259
 S          -0.67575151572637    0.25999909113367   -0.54245708496696
O           0.44846959882486    1.13795470122089   -0.29485006690706
O          -1.95728597330416    0.86420778321836   -0.30225948323818
O          -0.60986475432680   -0.31692051690363   -1.92189544574727
O          -0.52618752635057   -0.98162610410940    0.37761681524770
O           1.63999895851175   -2.54074755381857   -0.14043096801999
H           1.36029683841012   -3.45686295771922   -0.09506139188131
H           0.89223396956605   -2.00543581976199    0.18169003683102
O          -3.68692833492709    0.09727348680073    1.57612139835975
H          -4.27755743498169   -0.56355774851010    1.21212731363556
H          -3.17506180474547    0.45393635793650    0.82196696715411
O          -0.64175993183419    2.20399114526847    1.88622735869894
H          -1.47451581464697    2.52705947332687    1.53173907911494
H          -0.11558007991598    1.94064928104718    1.10746558043198
O           1.63952760051841   -1.14750522883623   -2.40505636214041
H           2.22946487359734   -0.34434087984860   -2.21443509586143
H           1.78456440836797   -1.76601532281998   -1.65128217377447
H           0.42944817322451   -0.70158900289644   -2.19015592054151
O          -1.26164408245098   -0.25541541213419    2.62837293303591
H          -0.96469067242075    0.68743453059925    2.59521350470534
H          -2.23410750353115   -0.21624100046740    2.49274591861896
H          -0.81471511643364   -0.71889856338756    1.37421527774301
N           2.94706039592689    0.98305773410694   -1.64280672463447
H           2.15069469538909    1.25640696130974   -1.06663870578957
H           3.14691058481860    1.74002632832140   -2.28323754281769
H           3.74698045841549    0.86315922693768   -1.03493521725775
