    26
        -50.46272426  Gyration_radius:  2.48113820336 Dipole_moment: 6.119
 S          -2.08152387549112   -0.89580575719738   -0.57736152982850
O          -1.44493270264919    0.31222528611075   -1.13805831069735
O          -1.76547199101673   -2.08874095821104   -1.32010412749801
O          -1.85467074099173   -0.96320109456378    0.84520425657379
O          -3.64527145691193   -0.66730372523937   -0.78806858148076
H          -3.80924005417157   -1.22937003083623   -1.53811539508916
O           1.86543576024729   -0.79637740188586    1.21870725129507
H           2.54998266723818   -1.39646192199561    1.51768866366010
O           2.18269383397783    1.54903462815207   -0.03418637390018
H           2.14670004287505    0.68404588605691    0.43803233072991
H           3.09138488640066    1.84923161984212    0.00047807808581
O           0.99518850474891    0.29509394403279   -2.33706733314832
H           1.45713442526710    0.86457388703774   -1.70782843078642
H           0.05198555774976    0.34802634045590   -2.10287507840583
O          -0.28506327431385    0.17690120686647    2.61026096913047
H          -0.41207739943017    1.29113135301394    1.55933343761694
H          -0.97747322601607   -0.36814876452300    2.18110746811531
H           0.54918735306924   -0.24297709526910    2.33239606082059
O           0.84975136571285   -1.95232069428376   -0.84173345014545
H          -0.09861251888893   -2.15260781384797   -0.95254766343432
H           1.04588776363733   -1.29866957880680   -1.54492077971564
H           1.39971172669755   -1.28008851915556    0.46569709606534
N          -0.44801955487629    1.88585368786472    0.65708248269799
H           0.52164091595058    2.05713483840191    0.35240125864939
H          -0.95996877916675    2.75061533205774    0.78715402791704
H          -0.92435922964807    1.26820533592200   -0.08267632722773
