    26
        -50.46183276  Gyration_radius:  2.40577205711 Dipole_moment: 6.569
 S          -1.64659818473130    0.62877706593621   -0.96675710716734
O          -1.12951562568346    0.28589344032900   -2.26308558096597
O          -1.46184504078603   -0.38266190537591    0.05570601789898
O          -1.16923658558093    1.93431415861238   -0.49276731090408
O          -3.21830828801314    0.78313080231197   -1.13879908790966
H          -3.31723384912427    1.07089321435791   -2.04143548281146
O           1.79550388589021   -1.16751449449117    1.25374647018848
H           2.68602168777527   -1.49046537964099    1.11082248434795
O           0.03430324859101   -2.59331937575330   -0.47116371813033
H           0.65336941044819   -2.41795749681193    0.25060353037162
H          -0.65574036670770   -1.91530126592237   -0.37262686148287
O           1.18108189756968   -1.20205250184444   -2.50209357843873
H           0.85527657166477   -1.90989831040524   -1.90830853753613
H           0.37388875943012   -0.75714075859450   -2.80018910959359
O           1.31355208171175    0.64868451850845   -0.64978800759128
H           1.46828136242462    0.01160200289249   -1.40021125736191
H           0.43277971043183    0.99763522913498   -0.83418831628438
H           1.62719097926461   -0.49789767779467    0.54819468435182
O          -0.47401462031486   -0.34341808385500    2.51376797627844
H          -1.02773198462970   -0.47650094885439    1.71428209006277
H           0.31908974539386   -0.87887909054060    2.34941708905312
H          -0.00610395515837    1.04470830327457    2.14594925257055
N           0.28909815103801    1.96331964785903    1.63622016309777
H          -0.39245381675615    2.04923380409336    0.80813908122281
H           1.21169874396127    1.83342893588666    1.21987413613909
H           0.25764608188413    2.78138615666335    2.23469098058838
