    26
        -50.46183248  Gyration_radius:  2.40573433523 Dipole_moment: 6.559
 S           1.72429060718127    0.82769333525762    0.61990333248769
O           2.46000572217938    0.38589175579295   -0.53297039403363
O           0.42808803510354    1.41192839556692    0.33459090076554
O           1.60499393066001   -0.21228697624592    1.65006289937615
O           2.58375313476792    1.98927321009143    1.27975274081959
H           3.47894007001335    1.76479279911201    1.04375820259383
O          -2.22063341806858   -0.60099798090653   -0.92993478224689
H          -2.59279239028882   -1.16784446094426   -1.60663615224066
O           1.14620044358674   -0.70521193354209   -2.69857493794229
H           1.89473414291915   -0.34609259614570   -2.19944031003576
H           0.53125465550904    0.05303323636272   -2.78023994039351
O          -0.56727628821782    1.34101186515972   -2.19647977460397
H          -1.36309000272589    0.85924776977856   -1.93271925712706
H          -0.11235505464872    1.53993069368218   -1.36035506921528
O           0.22482647121789   -1.53988781881018   -0.39021136280833
H          -1.31981113980896   -0.95557229853732   -0.73651490808757
H           0.55230051878960   -1.43355091763033   -1.32528203924054
H           0.87495704842064   -1.05073987134987    0.12910495780657
O          -2.01582463474549    0.99452141341083    1.26756289833147
H          -2.40657984511664    0.62055675613979    0.46118177019638
H          -1.40126953831152   -0.22052833650799    1.91970805772880
H          -1.16705032441960    1.38613766543789    0.96786154262583
N          -0.76699751666665   -1.05783613862156    2.21627307656685
H          -0.85631012459633   -1.80559258458745    1.52759031764338
H          -0.95316792021081   -1.38792049034095    3.15690513315723
H           0.23881341747827   -0.68995652162255    2.11510308787509
