    26
        -50.46183272  Gyration_radius:  2.40578136335 Dipole_moment: 6.569
 S          -0.96398425617547    0.54383086383785   -1.67786075905215
O           0.18172763644327    0.32707846845283   -2.51791552875906
O          -1.22959873267753   -0.50929045885730   -0.71716496329475
O          -0.94113625250015    1.85368365654108   -1.01395057982446
O          -2.22607078787006    0.57373136623277   -2.64216979325069
H          -1.87295408999178    0.90502693412132   -3.46240775048945
O           0.99885306259980   -1.08673625659064    1.99562460145249
H           1.86308469257824   -1.32273694973150    2.33497682828386
O           0.54649977309024   -2.54719147110866   -0.40691800740056
H           0.67994020257335   -2.36511039491523    0.53329489343355
H          -0.16192480662441   -1.93805115078783   -0.67646349614169
O           2.42456023988866   -0.93850632429372   -1.52944633303240
H           1.91532135208807   -1.70739847775471   -1.19882752724050
H           1.84651184870001   -0.54668281074772   -2.20080598594811
O           1.38261995119546    0.79754888599421    0.13627523511068
H           0.69307379222136    1.08032536724075   -0.47706403474910
H           1.15033284068253   -0.39094867226942    1.31194959815126
H           1.96983023628514    0.22431344948413   -0.42894481179413
O          -1.66642016292770   -0.53675024705130    1.89567676887701
H          -0.85146254885263   -0.99120821832115    2.16420401671679
H          -1.22580305653104    0.90642329353390    1.83696559306675
H          -1.70893688639072   -0.66719132752164    0.92370416159445
N          -0.80866748335431    1.87706249632510    1.56330785604842
H          -0.96775584327862    1.95492950723492    0.50206348997914
H           0.20395569593832    1.85312482563789    1.68765868296711
H          -1.23159642710603    2.65072365531113    2.06423787529770
