    26
        -50.46183267  Gyration_radius:  2.4057106029 Dipole_moment: 6.568
 S          -1.13771688990262    1.62679629037690   -0.31611285150357
O           0.30136563775103    1.45935022941762   -0.25563491821839
O          -1.76663625514799    1.07272602979229   -1.48354256386503
O          -1.76275345259575    1.17481479430210    0.93355381998975
O          -1.38481554138143    3.19494960082528   -0.37686426589659
H          -2.21442585053790    3.27375477383587   -0.83817354910893
O           1.73081130666412   -1.77204303538510    0.16080844725647
H           1.87908102392980   -2.66798731169378   -0.14424177774932
O           1.57531154095180   -0.06592436275872   -2.11397439213019
H           1.13905176633984    0.63162010780289   -1.59561784839201
H           1.94759546562675   -0.66472191098386   -1.45232674002586
O          -0.81392052787351   -1.25397420505229   -2.61941829621352
H           0.10464225689181   -0.91819940962884   -2.67679073488154
H          -1.35245786780912   -0.45151762605821   -2.55303995685222
O           1.95867055989266    0.53395907763810    1.59240102938193
H           0.69861279168522    0.06679776746769    2.28153945699862
H           2.24852882833795   -0.26657614276138    1.12569319548508
H           1.50406994294942    1.06601097770968    0.90397846963165
O          -0.90161014851366   -1.32252057960703   -0.00025202758450
H          -0.94603875025106   -1.50276981684365   -0.97933497246963
H           0.75812786472770   -1.61583225207288    0.09884415912722
H          -1.29129805058786   -0.44321660963300    0.08011300054708
N          -0.31751666611125   -0.23402318399423    2.54211858033966
H          -0.95229176535348    0.42891262260312    1.98100683311683
H          -0.50779034637392   -0.18376486301074    3.53692871192484
H          -0.49659687330654   -1.16662095229033    2.16833920109247
