    26
        -50.46117191  Gyration_radius:  2.41691312935 Dipole_moment: 3.331
 S           0.22652514782955   -0.38409266642456    0.92647883861887
O           1.15942934143884   -1.39058849318732    0.45768960516490
O           0.64951485926223    0.95591986897034    0.46906210570870
O          -1.14020241286614   -0.64929550527110    0.50112925506305
O           0.22844084939135   -0.34178006881593    2.47169668169567
H           1.20824273507908   -0.23180852595614    2.67152819556637
O           0.22915189330864    0.96445151399307   -2.01744321671511
H           0.54288572289510    1.08739367976296   -1.05077199693002
O          -1.47425743356923    2.58512806937287    0.77736389341923
H          -1.86219769103830    2.38863612357038    1.63131848663630
H          -0.63047640957436    2.09423015905325    0.74467635807735
O          -1.81230127023917   -2.20798537215933   -1.59804513713123
H          -2.52697648330075   -1.68939717715672   -1.97527518606644
H          -1.65545813618454   -1.84655493716648   -0.70619743764770
O           0.68110114165601   -1.47003313825904   -2.13281632049103
H           1.00448762376308   -1.57903795098595   -1.20778942864026
H          -0.20713995416352   -1.89898991843259   -2.13337124873782
H           0.45391413581548   -0.08612189961941   -2.20532054265037
O          -2.18212123174042    1.00257018731445   -1.28563735360285
H          -1.97776663720209    0.32313036270810   -0.60467593585615
H          -2.20398330292439    1.82628761907717   -0.76230171087028
H          -0.80801552991648    1.03589772302276   -1.90775200149936
N           2.80041971220539   -0.11729152711150    2.37196707430535
H           2.71444486487512   -0.73697425387932    1.57072113470308
H           3.55400356311789   -0.44054740315921    2.96483560453480
H           3.02833490706010    0.80685353368587    2.02893029661127
