    26
        -50.46117196  Gyration_radius:  2.41690856476 Dipole_moment: 3.329
 S          -0.27144693093185    0.91510117862250   -0.38498356587679
O          -1.16827908437173    0.06819444154843    0.42875375339929
O           0.58368985650264    1.70952641327286    0.47568119994485
O           0.48556895941296    0.09124099872568   -1.31635188664227
O          -1.18243383934293    1.84086075917310   -1.22335171532586
H          -1.60289871542446    2.41249935073987   -0.51048130649688
O           0.33145160240437   -1.68459768463142    1.44868645455391
H          -0.38493909457684   -0.99853396997624    1.19637900484399
O          -2.16204815105170   -1.82100724627352   -1.21477835962995
H          -2.40943305243156   -1.38688670125403   -2.03247890161160
H          -1.94182414860885   -1.10706249676287   -0.58556129854303
O           3.06228504420203   -0.63362845765879   -0.96809282573618
H           2.23385352270864   -0.21717582044664   -1.26972520166170
H           3.02802194645965   -1.54568061234278   -1.26665271073013
O           0.42216477353123   -2.52626883235377   -0.92508609592855
H          -0.52322794137871   -2.70026453436101   -1.09529686865203
H           0.52901820713591   -1.60116041691012   -1.24087917814839
H           0.44373994070579   -2.20493809389633    0.54887393366301
O           2.22463590016566   -0.08539019806312    1.49006709802935
H           1.22045632508426   -1.06338214228647    1.56640566984958
H           2.76294192477030   -0.30061923457740    0.69190884101833
H           1.71325765273916    0.71683582996071    1.23060760003608
N          -1.88052018832528    2.99530667958283    0.98042459512355
H          -2.13172906327530    3.94475450246403    1.22398729499734
H          -0.91506250855124    2.82433881824321    1.24881163084446
H          -2.46724293759150    2.35793746947576    1.50313284865930
