    26
        -50.46117196  Gyration_radius:  2.41694085818 Dipole_moment: 3.331
 S           0.43397147851159    0.88270779352279    0.30387466955191
O          -0.72009963354283    1.38844388864402    1.02183853212801
O           0.81924506143759   -0.44424219161550    0.82777840385035
O           0.20827518576086    0.80686638101313   -1.13230872698675
O           1.64659557500170    1.81399056538637    0.53159906592288
H           1.67946030622062    1.86351693147533    1.53575179809231
O          -1.00714650421266   -2.00643817160071    0.06238915582079
H          -0.24949123475514   -1.49607321286575    0.52403247706748
O           2.45730869439984   -1.56025282778462   -0.99697881398182
H           3.07283756028780   -0.88275593382399   -1.28059406455724
H           1.97066167002566   -1.18306161240731   -0.23867664119376
O          -2.22699839283819    0.70744180713907   -2.29292011643036
H          -1.35070222897764    0.98204710052126   -1.96514103642131
H          -2.06402332815557    0.05956205464402   -2.98272279245781
O           0.04401099660022   -1.61269279462751   -2.19397713998745
H          -0.67943725923027   -2.00773561779090   -0.93040054200558
H           0.11369165095575   -0.65419892676217   -1.98554538971258
H           0.95253745292676   -1.93103513759627   -2.03207117320844
O          -2.66786376038758   -0.16983941811602    0.17322827526651
H          -2.08506010385193    0.49633566585339    0.60794864094030
H          -2.75888225680731    0.15332075043139   -0.75432021621445
H          -1.83573120616059   -1.29913028871693    0.11964906617799
N           1.21348792304939    1.60349278538409    3.07015790632639
H           1.46965813913500    0.66893803870101    3.36105618876241
H           0.23587761063729    1.58830634738549    2.79191189609354
H           1.32781662395797    2.23248601361985    3.85444056713698
