    26
        -50.46117198  Gyration_radius:  2.41673283333 Dipole_moment: 3.329
 S          -0.10770412033405    0.11072133353850    1.01659780805433
O          -0.13137375119049    1.23779413704584    0.06103116158480
O          -1.42138520756211   -0.49670190430587    1.10697333591547
O           0.92377832011402   -0.84419179473110    0.63804042817017
O           0.29434769168796    0.70479285578443    2.38596976150998
H          -0.49915049988558    1.28597470059148    2.59690709696196
O          -0.37222426996679    0.16997748757756   -2.21031192761384
H          -0.36933316905815    0.75397160747151   -1.36915741410673
O           2.43530885698295    1.79878881197584   -0.53538878806325
H           2.92929180768971    1.77622295710412    0.28546714187081
H           1.49309143849221    1.73838589448397   -0.28509420998423
O           0.45251227503531   -3.18092596519223   -0.62940332172697
H           0.66275541236436   -2.49261427410665    0.02832936970922
H           1.18551963308365   -3.19166294032154   -1.24961712814371
O          -1.66873581160816   -1.69953466861232   -1.22528612580665
H          -1.02009696331200   -2.43402422275468   -1.11278939784655
H          -1.76608694314598   -1.31902852735882   -0.32091683795949
H          -0.99260311296344   -0.67323676478644   -1.90768173564284
O           1.99846443406285   -0.55869078446368   -1.76427093473403
H           1.74545447348042   -0.79195101251183   -0.84306654938206
H           0.61578931128742   -0.17214326491979   -2.22622259723644
H           2.43897870999499    0.30506715374893   -1.65034998460123
N          -1.96866402702951    1.95152638255222    2.40629692721612
H          -2.31210347213052    1.11122798779606    1.94880709377633
H          -1.93309582396807    2.69039443861283    1.71604335807728
H          -2.61273520207966    2.21986039603249    3.13909346004931
