    26
        -50.46117202  Gyration_radius:  2.41676682836 Dipole_moment: 3.326
 S          -0.68938886339197    0.50731304174373   -0.57150237673702
O           0.21549503276502    1.54434607888799   -1.02849448694845
O          -0.15559391528462   -0.82557514545892   -0.92097556800848
O          -0.94765639077403    0.58295993061575    0.85918550825710
O          -2.05006982121681    0.63867720258924   -1.29314887079073
H          -1.76842296900903    0.64966534733217   -2.25867442830235
O           1.83428724568731   -1.15371015572659    0.59365888259146
H           1.12583121875570   -1.13578014917517   -0.14482355373188
O          -1.51144269786382   -2.61877801530446    0.56396634034976
H          -1.05960911754402   -2.05084784744465   -0.08977848306605
H          -2.43617213489509   -2.36857156900365    0.53809719146267
O           0.66232713883187    1.82046615573325    2.63851882585794
H           0.62950806524804    1.19443008595788    3.36596971963002
H          -0.06683955047439    1.57839472582864    2.03818732593955
O           2.27283978976141    1.28580194662116    0.59716290267351
H           1.87573980420344    1.61908856451494    1.43636132742809
H           2.15905198466123   -0.11307531480965    0.63282702182531
H           1.61657928558958    1.52937696213022   -0.09740797926858
O           0.04917822402350   -1.35576769116054    2.36093288828634
H          -0.46311887407859   -2.11388039938933    2.02063646716310
H           1.24402668691507   -1.31763985491969    1.44093063216935
H          -0.41915917409625   -0.58715100983502    1.96471888899656
N          -0.75690771861160    0.66118588790999   -3.53011466261896
H          -0.90482572808422    1.12036636520436   -4.41960500274779
H          -0.39444942299845   -0.26830505243193   -3.69877642374932
H          -0.06120808720467    1.17700990069222   -2.99785207636483
