    26
        -50.46117200  Gyration_radius:  2.41676775827 Dipole_moment: 3.330
 S          -0.20371335398759    1.00317671086429   -0.10404411886925
O           0.31115166602580    0.39599934282184    1.14088436040631
O           0.89133331633385    1.29455676435807   -1.00902128152952
O          -1.20811325213363    0.13704187992644   -0.70440904477078
O          -0.91193740349553    2.31443196747495    0.30661320614804
H          -0.13987782360416    2.86832836365778    0.63670276206829
O           1.07791730701980   -1.91310636819926    0.47671519394599
H           0.90684808735191   -0.98901572623480    0.88234203958659
O          -1.79861849060927   -0.72402504780194    2.38736601320440
H          -1.00972359767890   -0.24840253364383    2.06260684210665
H          -2.52433590205041   -0.10036744328999    2.33519299400901
O          -0.76152387315508   -1.48520108414050   -2.81529942974518
H          -1.25083505412658   -2.26432858680070   -2.54012834592838
H          -1.04961870760268   -0.76193579580267   -2.22827511560771
O           1.65798466158632   -1.10170907805520   -1.79242639764784
H           1.52646157081333   -0.14045316556099   -1.61630978479375
H           1.41793929208205   -1.66843716672361   -0.53028116970630
H           0.89226979149030   -1.35308127320998   -2.36112412634069
O          -1.39887879040263   -2.32267094425403    0.25543138387415
H          -1.49468732416370   -1.45258033530336   -0.19276069919657
H           0.10361973705932   -2.28094310278063    0.38479958502835
H          -1.70072907474668   -2.12743771925009    1.16298541670216
N           1.40477319387360    3.25198362334737    0.96253341464005
H           1.72832309790615    2.71354672701571    0.16331459042429
H           1.71406510728430    2.78030873871265    1.80247359280872
H           1.81990580891368    4.17432126289919    0.93411812919783
