    26
        -50.44929204  Gyration_radius:  2.51718675374 Dipole_moment: 2.086
 S          -0.90280957493604   -1.83151829712842   -1.15600526239617
O          -1.64584103267622   -2.40576945266638   -0.05564804100747
O          -1.59144750940093   -0.74499649598338   -1.82097361827153
O           0.45754638891857   -1.45668231184799   -0.77859103845360
O          -0.72167007509946   -2.98181360809254   -2.23597066942931
H          -1.62274872059592   -3.19678679183293   -2.45303430887031
O           0.05605422631666    2.47474450161317   -0.60489053626091
H          -0.21488578916739    3.11406576969110   -1.26572615538279
O           2.99535272948996    0.00966630723218    0.37757272701798
H           2.35490987466356    0.39136801152452    1.06515998673017
H           2.81157315566450   -0.93409622397561    0.35607654046736
O          -1.31787514272835   -0.72633925301653    1.89912823424797
H          -1.92523908527902   -1.00747426410788    2.58632027433150
H          -1.37915760105571   -1.41618847668430    1.19277501323001
O          -2.02796745572478    1.10477513310007   -0.00479861347062
H          -1.85501166364901    0.57390329186984    0.79366158338882
H          -0.78701760367408    1.98012048003760   -0.33972088774001
H          -2.00819050861695    0.45680608117042   -0.74330992817301
O           1.53440060606239    0.62274061777349   -1.55135462383166
H           2.28753395612332    0.47639140789526   -0.82346226111833
H           0.98908934381926   -0.25796854379140   -1.37660529840012
H           0.95067753257987    1.39608805278753   -1.20253406059830
N           1.11631084266992    0.98940601205094    1.91500353204703
H           1.31063731722539    1.25610880400843    2.87137159047497
H           0.36343887466779    0.30492281179728    1.92896652072495
H           0.77233691439295    1.80852645656857    1.42658931074467
