    26
        -50.46117194  Gyration_radius:  2.41701760331 Dipole_moment: 3.336
 S          -0.04320544992494   -1.02599137368758    0.06901847262833
O          -0.63934150278546   -0.11029728124105    1.06397833145257
O          -0.95643913320795   -1.22355055601603   -1.04001904023615
O           1.25399360415331   -0.52284593798761   -0.35940460623341
O           0.20032720226212   -2.36770148540236    0.79719331541912
H          -0.74012518938237   -2.66946438759772    0.98753207710424
O          -0.62519627115076    2.15712515574568   -0.03978835853553
H          -0.78851435480106    1.30405702092534    0.50213110739227
O           1.70209071670599    0.75946707206748   -2.69220991707643
H           1.66217107721263    0.10590339655099   -1.96980538997816
H           2.30564845580577    1.44641936236907   -2.39900511859026
O           1.36548728670479    0.72049558012630    2.66056841732271
H           0.57101508381822    0.37980709703378    2.20576180505134
H           1.89874308643097   -0.04663893827875    2.87352630549215
O           1.86095029721731    1.96219895805168    0.32144470334011
H           1.89915102780701    1.86744907475665    1.29232124780167
H           1.82406725912923    1.02780788945110    0.01714151756732
H           0.40746781915716    2.27772299984632    0.07286985451490
O          -0.89566912980564    1.10738116440585   -2.26926306332350
H          -0.79321520673959    1.82087645768742   -1.06283433478211
H           0.01214440802511    1.07854542664875   -2.65386918495904
H          -1.05644648280824    0.18736949295250   -1.95336659699133
N          -2.36427580800188   -2.63848662375748    0.95947837419629
H          -2.71502034858553   -1.96946285216034    1.63258793673695
H          -2.98609499982467   -3.43646119023036    0.93765845108041
H          -2.35971346741871   -2.19172552227157    0.04635368358295
