    26
        -50.46972936  Gyration_radius:  2.43103692653 Dipole_moment: 5.129
 S          -1.56568878159892   -0.09980732670133    0.08583365325504
O          -0.24312621993875   -0.81149312101748   -0.42931838903346
O          -2.53919110290051   -0.37498053448289   -0.93796978697672
O          -1.85587971681123   -0.62978180697719    1.39679290655581
O          -1.20569509612730    1.33140734573157    0.14842414609182
O          -0.08484451125676   -2.25000350200924    2.51717843223498
H          -0.80395664461590   -1.68446986953743    2.15774688687825
H          -0.42500791303895   -3.14484509469971    2.50988676135654
O           2.61472202229330    0.41912683328621   -0.93990144920290
H           2.39569664904732    0.22238350437374   -0.01140072999015
H           2.84223316544012   -0.42353624079877   -1.33731853443305
O          -0.09271724332240    1.32315989122937    2.54023629893221
H          -0.69220627549144    0.76247213402248    3.04123378850716
H          -0.56332091615540    1.49468499106083    1.69845779974297
O          -1.14710667331677   -0.27346812240593   -3.12050365391607
H          -0.15817228747222    0.84649126840107   -2.53006483483274
H          -0.77240673844887   -1.15630452603455   -3.14638684426623
H          -1.79316866917853   -0.29894632692284   -2.36568263777257
O           1.53865175506485   -0.41530509196872    1.43778574886248
H           0.44399176058622   -0.69734553445900    0.28188622374986
H           1.08849348269931    0.32227315565731    1.92703511438377
H           1.29493030780927   -1.21253008280625    1.94077176123853
N           0.33364767316008    1.54199037100515   -1.89796787573948
H          -0.30044616597299    1.59528094780104   -1.03384205268037
H           0.43039319899685    2.44981130079391   -2.34026889506987
H           1.26017491056998    1.16373541746664   -1.59264381787112
