    26
        -50.44929202  Gyration_radius:  2.51705957826 Dipole_moment: 2.088
 S           1.73620283171265   -1.52391307731497   -0.41068438849023
O           1.84575004846170   -1.30898005071165   -1.83702485400893
O           2.44211153550828   -0.54003326331153    0.38345705120514
O           0.35164738486933   -1.67806691811130    0.02819270407933
O           2.41684143380410   -2.92586379591654   -0.10510932913824
H           3.30921211157407   -2.78470880987951   -0.40351841208802
O          -0.20917480478831    1.83769186992784    1.75238558298338
H           0.24592946327180    2.26765989022907    2.47826599046687
O           0.16516203333336    0.60727308090221   -2.33982717810401
H           0.33435432682222    0.86828440023710   -3.24723901789594
H           0.74274512841154   -0.17940658877463   -2.17817463239774
O          -2.63412757182844   -1.17232852036499    0.89161011767033
H          -2.57208654004567   -0.34277519878252    0.31137969274270
H          -2.28222520235646   -1.88638301122766    0.35189003030710
O          -0.51228548348074   -0.67095581623978    2.10682333582525
H          -0.38735909319536    0.34644066038237    2.00741402153160
H          -1.49369921728872   -0.87717649720168    1.77091170368805
H           0.01032618146345   -1.10973150325450    1.30837217156493
O           1.42272952169952    1.80497658012753   -0.22643425019920
H           1.94402262294459    1.00705247396990    0.01290872573117
H           0.94904103407948    1.55500668525898   -1.04031821164367
H           0.42669414474719    1.88160118128050    0.96528402068235
N          -2.15891792875514    0.98327686171117   -0.51617233148843
H          -2.89762927364540    1.44291969645355   -1.03245868343953
H          -1.41969029240981    0.74577514459321   -1.17394983005558
H          -1.77557440490927    1.65236451601810    0.14201600047288
