    26
        -50.44929204  Gyration_radius:  2.51702317211 Dipole_moment: 2.088
 S          -0.29237208730886    1.89936768371052    1.34617856578874
O           0.89596816388690    1.74422481002837    2.15637421697866
O          -0.04715107943719    2.52916886323225    0.06547465848547
O          -1.03739477549999    0.65165292484480    1.19934334650082
O          -1.26921665546093    2.86326343320174    2.14553712753574
H          -0.75081099852476    3.65765387134596    2.21939490585645
O          -0.09859180071508   -0.26566341343310   -2.53228156157487
H          -0.22780926122662    0.21068927667021   -3.35402944552469
O           2.11344669628767   -0.31479160454510    1.14268328719827
H           1.61894146786041    0.41441428240605    1.59246599113995
H           2.97489083050674   -0.33912971702639    1.56396487931126
O          -2.03508328249205   -2.20398110934095    0.32676229498094
H          -1.06054532447053   -2.38566944166392    0.11238449485418
H          -2.03318316778504   -1.81574177542380    1.20669573606918
O           1.68507541864103    1.01661931618763   -1.20800461797830
H           1.11433602854047    1.70552502534535   -0.80132640131574
H           1.99111471430240    0.47559175110018   -0.45772000141061
H           0.64514003021663    0.22118265911927   -2.04681932335962
O          -2.07070542467603   -0.04669331882925   -0.92811376763730
H          -1.30213694256398   -0.12672241491058   -1.60895705250147
H          -2.19937635785254   -1.01410982541896   -0.52042451205850
H          -1.66237095069223    0.41632707617211   -0.07841638435084
N           0.50054735319328   -2.35568014929442   -0.30718123227312
H           0.55969385881450   -2.00317175669290   -1.25590857106165
H           0.99575848769095   -3.23715465332031   -0.27133554203334
H           0.99183507876585   -1.69717176345920    0.29325889839108
