    26
        -50.44929184  Gyration_radius:  2.51716133527 Dipole_moment: 2.090
 S          -0.44723893061200    0.08454879077714   -2.30204138318777
O          -1.53219464981443    0.90251517389504   -1.80130861116649
O           0.72026745782957    0.84243134510373   -2.69602570044461
O          -0.12493739557226   -1.00437439331865   -1.38343148727463
O          -0.98864098846652   -0.63533961304816   -3.61006440235637
H          -1.18196296798512    0.10207387383490   -4.17936399086917
O          -1.49200455773069    0.52881562440997    1.99714706813476
H          -2.36672929382350    0.82899399097993    2.24925284732841
O           1.91008662652637    1.41747226115514   -0.45939170107487
H           1.51664435293420    1.13241336557440   -1.32112157764329
H           2.59688137369347    2.04754095597666   -0.68631949946106
O           0.60448120589197   -2.72288400972313    1.15257084308679
H           0.92648690398697   -2.82312070624336    0.25186486923933
H           1.03715973625429   -1.87331067072719    1.49850322033486
O          -1.53248764150172   -1.57818263456521    0.55839589521009
H          -1.55539959849044   -0.73942799313567    1.15540142640599
H          -1.08511971352914   -1.28288047601470   -0.34491006499970
H          -0.74044873947892   -2.17485643837348    0.92626292756234
O          -0.60084262802916    2.21214570203643    0.27910068055003
H           0.35122159915678    2.06330181021404    0.13518138931651
H          -1.03293784349136    1.85684554985641   -0.52882030543767
H          -1.13348012681731    1.23142231092485    1.36180363474731
N           1.48465540120163   -0.36862789559101    1.88536378422350
H           2.28065833664131   -0.27789064834980    2.50314748730105
H           0.69350965707835    0.08590644730002    2.32731730985585
H           1.69237240414185    0.14446826705210    1.03148534061745
