    26
        -50.44929202  Gyration_radius:  2.51704874512 Dipole_moment: 2.090
 S           1.68318041589821   -1.25127447169261    1.05210039107170
O           1.44410358998781   -2.50410541585168    0.36951253593524
O           2.49263721155437   -0.31950911447968    0.29474028150427
O           0.45108455783818   -0.62966316985854    1.53052777048691
O           2.50131257986813   -1.59593930739535    2.36891479739041
H           3.28941861762939   -1.99572363632137    2.01625301769151
O           0.09163472167618    2.28847158148201   -1.11631869759673
H           0.67572946043903    3.01381057404216   -1.34349119357929
O          -0.42137036735705   -1.96335943157119   -1.35581642145496
H          -0.48414374373779   -2.73675139684178   -1.91979550684596
H           0.22502666239950   -2.20414522311615   -0.64672569194759
O          -2.27703018469949    0.92607449424039    1.74983745652881
H          -2.40294338314634    0.67259457754286    0.77588816098548
H          -2.01639669840905    0.11272608426110    2.19207117830003
O           1.21758045336878    0.14253892212089   -1.95710640950579
H           1.82811431341745   -0.01999583215470   -1.20440095311560
H           0.58381073672370   -0.59674773724863   -1.92455987568457
H           0.52319010674474    1.45738056946111   -1.50214846060073
O           0.03388886601839    1.79660764354685    1.38677493794600
H           0.38266138034618    0.80896294239093    1.46427367256515
H           0.06952398402673    2.03626659173136    0.38583136297614
H          -0.98415775473398    1.61014893042054    1.60465702923220
N          -2.27614184926973    0.29703838243432   -0.79153804159076
H          -1.79197782194393    1.05810829697814   -1.25436290566384
H          -3.14155578745640    0.13089129138361   -1.28850278900706
H          -1.69718004718237   -0.53440615550422   -0.88661566601786
