    26
        -50.44929186  Gyration_radius:  2.51702622033 Dipole_moment: 2.089
 S           0.15987842679166    2.09628506482911    1.04161108638964
O          -0.80054487435060    2.79466555199978    0.21545313128546
O          -0.44091292211498    1.32615404958522    2.11064019225240
O           1.09420091265564    1.29270244891165    0.25764925220305
O           1.06113993684847    3.20592233546513    1.73353298977766
H           0.41977095837522    3.70570055140617    2.22763123476417
O          -0.32885319593324   -2.32293955781983    0.99496149709514
H          -0.45301896136743   -2.80051740958283    1.81679213978917
O          -1.75705949661982    0.96476747245273   -1.36112956539977
H          -2.50223910330706    1.37174651240599   -1.80747457281643
H          -1.34029832068099    1.68695544175404   -0.82884032725846
O           2.45392711382483   -0.96030496717381   -1.47078225348016
H           1.51163653503309   -1.17238567846068   -1.78028045225196
H           2.54136668267875   -0.00659147852953   -1.55909353751332
O           1.82716424802848   -0.95923443177051    0.94527776333177
H           1.50239364445041    0.03261617247222    0.82659345845118
H           0.97552772477973   -1.53612417441266    0.99544248727279
H           2.21825481256447   -1.10282010399349   -0.02689707414219
O          -2.04821223379779   -0.41962343914443    0.97988903758377
H          -2.09523071484404   -0.02505877028562    0.09026436457103
H          -1.04892705508620   -1.61076710971289    0.97990181506281
H          -1.55845362844280    0.24010736390749    1.51896392767769
N          -0.07528209451678   -1.41639986571025   -1.97003805509085
H          -0.37989522444958   -2.05296755861438   -1.24213083042037
H          -0.37155560158101   -1.79630337750972   -2.85964828943129
H          -0.56477758895022   -0.53558505247397   -1.82828943970548
