    26
        -50.44929210  Gyration_radius:  2.51695044612 Dipole_moment: 2.089
 S           2.20556105827468   -0.79587952854488   -0.08173343459651
O           1.90375693606495   -2.15469726447954   -0.47564087549923
O           2.23031429022546    0.14004464458076   -1.18650167408234
O           1.35108124067814   -0.32440746150542    1.00492994041813
O           3.67041562457759   -0.81132102711043    0.53159090855041
H           4.19148065129038   -1.11973015720682   -0.20234904575555
O          -1.04452174864015    2.09093042125118   -1.01429907949162
H          -0.86057285229518    2.86307483592021   -1.55169874213943
O          -0.67044563986362   -2.17757249072053   -0.82424528551098
H          -0.86854609487964   -3.02237552803343   -1.23318222369174
H           0.29522392058278   -2.20617568363315   -0.61132836182283
O          -1.04639315375463    0.77681366723364    2.72134822268097
H          -1.63653891308385    0.37077260546986    2.00338838222873
H          -0.41475889643888    0.08844978422109    2.94984808678960
O           0.41345295924112    1.95542084429360    1.07529020520641
H          -0.16880608864922    2.05371479777815    0.23154357579741
H          -0.24000937116312    1.63689862022349    1.84361576565250
H           0.94905082663942    1.05942967331988    0.95911388687569
O          -0.14791267800142    0.06298974898055   -2.30385861501926
H          -0.73447010812262    1.29627771883054   -1.56045843195539
H           0.79641311073719    0.11125920460746   -2.03626984742468
H          -0.47779319666964   -0.75840658078737   -1.89671703066749
N          -2.32917454903978   -0.19695737665933    0.65718671840646
H          -2.36428601681099    0.56017171695577   -0.01614451580042
H          -3.26385171304406   -0.57219355580282    0.75251786705030
H          -1.73866956785920   -0.92653163918929    0.26405362379536
