    26
        -50.44929207  Gyration_radius:  2.51697727002 Dipole_moment: 2.090
 S           1.76774245881141    1.35430688378827   -0.73900667223189
O           1.30672528942123    2.13102842156470    0.39289387880216
O           2.84886535603637    0.44701301258445   -0.42178999725684
O           0.66139892487547    0.69035038628392   -1.42347935883200
O           2.33633394785350    2.39162891814409   -1.79866427806200
H           3.04781215428475    2.80023835533683   -1.31686246086758
O          -1.96812755912230    0.53339763419256    1.52794661777106
H          -2.36969045451799    1.22450191949863    2.05705240405932
O          -1.89638175305117   -1.00572967536558   -2.11999229128087
H          -1.65708928176945   -1.54869772804626   -1.29749031310478
H          -1.07780634652831   -0.92651405800676   -2.61869095584952
O           1.69293356087084   -1.56201952470455    0.75146975789880
H           2.40451142692892   -2.09862342782769    1.10622741163079
H           2.13489053611917   -0.84678015422340    0.23019690114922
O           0.50027245232203    0.41695510101971    2.21549628128262
H           0.85352272660378    1.14564678911527    1.65879847319071
H          -1.01012877236821    0.46341000641744    1.84927120907692
H           0.90600181884455   -0.39047032221807    1.85116512261961
O          -1.70440289509968    1.17803692541898   -0.92667189736440
H          -1.84372473230927    0.94690780658031    0.06718967309478
H          -0.66822619009070    1.14028251419851   -1.09399354607829
H          -1.97175743340867    0.30896429624115   -1.46712370395420
N          -1.16435267960119   -2.12690405962242    0.12981810204379
H          -1.34113409716217   -3.10724144810823    0.30649158647868
H          -1.62475488023215   -1.59103347266651    0.85695715177109
H          -0.16343360771070   -1.96865513960473    0.22279091401416
