    26
        -50.44929209  Gyration_radius:  2.51691665408 Dipole_moment: 2.089
 S           1.13212241060423   -1.83079874098997   -0.93307416234568
O           1.74409458998431   -1.79377403524771    0.37886314466502
O           0.00153780776438   -2.72867288526598   -1.02368569876095
O           0.82319741217742   -0.48951771145510   -1.42170015521790
O           2.23640417502766   -2.38222411129266   -1.93246145988861
H           2.40948284497029   -3.24924323340686   -1.58089238193758
O           0.57068802456403    1.44656528844474    2.01853093825658
H           1.20626244065141    1.56963531763183    2.72546416766611
O          -1.95637241622621   -1.42726849341760    0.08150166138746
H          -2.67046347405418   -2.06149353909877    0.17099718922406
H          -1.24466652214219   -1.89841735936520   -0.41866204880286
O          -0.21722820677447    2.46491486421174   -1.72644681415741
H          -0.94378017605714    2.18645317586765   -1.07589322434931
H          -0.19086935064204    1.76932879163866   -2.39016745001745
O           1.62210370746632    1.55825556683303   -0.30363542249288
H           1.23111936412447    1.53759155591330    0.64890370594132
H           1.43202109680045    0.61245396138450   -0.71898914365595
H           0.93712243672359    2.11463676091437   -0.88676998957424
O          -0.11830686827448   -1.02371356760139    2.06670332888501
H           0.26876188690176    0.48207457384099    2.08576637253517
H          -0.89900650340544   -1.15907965177453    1.49972760552757
H           0.62916863869817   -1.40584779849567    1.55586309116139
N          -1.86716012564278    1.54939098635331    0.08851034337547
H          -1.40894681613691    1.72174000832093    0.97630436282036
H          -1.91204729412210    0.54091751158223   -0.03994628999502
H          -2.81523908297817    1.89609276446618    0.15518831974542
