    26
        -50.44930422  Gyration_radius:  2.54986699335 Dipole_moment: 3.576
 S           0.67417963759131    1.53438881139804    0.12051537113960
O          -0.54247170070575    1.66486257173456   -0.65437494182019
O           0.45001658108378    0.77520260855338    1.35247393072677
O           1.76192841491513    0.93246860069793   -0.66361379612490
O           1.17504977846346    2.94657272306699    0.52548820292306
H           0.38796402434003    3.30147443262814    1.01760658217522
O           0.67276508248293   -1.94128334812322   -2.55603684824390
H           1.00774606378513   -1.48064178942428   -3.32774652210770
O          -1.92774856095861   -2.23392882504937    0.36617395826148
H          -1.09197790812789   -2.10135285791311    0.84300580852003
H          -1.91062974365725   -3.12775060229172    0.01908959783233
O           0.58150856952553   -1.74391650660463    1.45270644843199
H           0.47576523408683   -0.73563003998713    1.44222072667359
H           0.90745440985965   -1.95876228633189    2.32855167331650
O           2.14670356248850   -1.48735200337859   -0.58625605516117
H           1.57712272794624   -1.76051428567105   -1.43465874857395
H           2.07271705393009   -0.40578260116118   -0.60263149799580
H           1.60231667467625   -1.74566359681455    0.22075714429267
O          -1.35902999682400   -0.60448216691149   -1.76189053601139
H          -1.74486184231545   -1.08327046703751   -1.00451551209513
H          -1.09718587203908    0.27736357339920   -1.42108753243849
H          -0.16691780462364   -1.43859696264000   -2.28168724429503
N          -1.17693381789875    3.22538193460884    1.61650075433933
H          -1.86110623214227    3.90944758957727    1.91459234068354
H          -1.11718689376653    2.49628062748834    2.31653097828560
H          -1.49718746209036    2.78548487608555    0.75828571717457
