    26
        -50.44930439  Gyration_radius:  2.549775061 Dipole_moment: 3.574
 S           1.66513186394341    0.03752643400718    0.22799304271191
O           1.08379191510852    0.91720218278801   -0.78824851917198
O           1.05290101994163    0.24281443138072    1.52447257430212
O           1.58470265610917   -1.36625058359153   -0.20026267077773
O           3.17928584769530    0.36605934884951    0.32095960519688
H           3.15778232415687    1.30639482834195    0.64170585127604
O          -1.68782559023086   -2.78899941579028    0.35114963701821
H          -1.23887077954831   -3.46402986587188    0.86366255222290
O          -2.81960326976247    0.93594552805843   -0.11450799183957
H          -2.21746329389880    0.80685229698152   -0.86569550164760
H          -3.62167044532438    0.44991126830604   -0.31502018771921
O          -0.98397576209393    0.31005416222007   -2.10338049691589
H          -0.87678041706859    0.71092541108988   -2.96786654560217
H          -0.17866453765100    0.60801035779579   -1.56433935533694
O          -1.45272589795975   -0.61678847192992    1.68179822646804
H          -1.64074036166101   -1.94324895348356    0.91315370364255
H          -0.51973800781112   -0.31493989538875    1.71201497804859
H          -1.94484706190477    0.07422003274132    1.20001288711202
O          -0.27658125694562   -2.12373790382313   -1.60440371463994
H          -0.91786561377019   -2.46904434843228   -0.83733436537893
H          -0.65275092575786   -1.24428272134862   -1.91984272890995
H           0.60686163856843   -1.83252749240144   -1.04725726120563
N           2.39225901267054    2.70606889783113    1.16007070460618
H           1.90044647095195    3.01316143263127    0.32996500502239
H           2.67308092642752    3.51949327648281    1.69336896259259
H           1.73385955583198    2.15920977261632    1.70783157892826
