    26
        -50.44930410  Gyration_radius:  2.54997651508 Dipole_moment: 3.576
 S           1.23395571837126    0.00601628332282   -1.14021605582508
O           1.00570583300055   -1.21718458639129   -0.36820809846769
O           0.02991400410087    0.44188845657126   -1.81695012965776
O           1.79235431368376    1.05964813884225   -0.28077593332591
O           2.32870796201185   -0.30421759817597   -2.19589055858266
H           1.87600016352569   -0.99138484329052   -2.75324699622525
O          -0.73206841170193    2.70402390159488    1.70656563897059
H          -0.42232225615410    3.52089000624928    1.31061561801925
O          -2.52190063665198   -0.77235717165591    1.37370411329665
H          -2.93701449998736   -0.40360553412880    2.15560478743824
H          -1.61920339223730   -1.02560335719313    1.62762359767365
O           0.14923249272069   -1.20113533980835    2.00656198656099
H           0.54881339750948   -1.95814359881389    2.43874681177073
H           0.45103291121108   -1.24987531110003    1.03988073254632
O           1.19682338475144    1.15841173761116    2.09506447685098
H           0.78722545596731    0.24845756242836    2.23186618783724
H           1.55433934794777    1.12131882356825    1.07194027090657
H           0.39420652766299    1.84294010849060    2.02379453469613
O          -1.83867710588895    1.37788216731764   -0.18126784333793
H          -2.20513518303290    0.56300942291178    0.21035804256182
H          -1.22091230151286    2.20980328549814    0.96523230302652
H          -1.18159747633578    1.08674752552797   -0.84903359032233
N           0.58346475395096   -1.96460409660293   -3.19455566538540
H           0.31083127540320   -2.44598978912090   -4.04241057036887
H          -0.06540708857358   -1.20215336950034   -3.02057828462871
H           0.50163079951834   -2.60478280444160   -2.41442537570748
