    26
        -50.45558064  Gyration_radius:  2.44442687422 Dipole_moment: 2.108
 S          -1.34424477494120    0.05774853980230   -0.40930076708144
O          -1.38874865252425    1.21548461000204    0.45513303412994
O           0.04252084586211   -0.34729018350709   -0.70004799784755
O          -2.07123539583604   -1.09164064674571    0.13143906486335
O          -1.99495125059920    0.40906474259741   -1.76773366299204
H          -1.52513890570369    1.27699881539537   -1.99539606549371
O           0.94812737018068   -1.13645543932773    2.66226166932767
H           0.67646423670046   -1.03686516401375    3.57666511161730
O           1.98489596167016    1.41728640172632   -0.79476171344830
H           1.26730910594875    0.74399225885168   -0.81017114075368
H           2.79916101655302    0.93880642605241   -0.95902973388715
O           0.59028547004879   -2.87307085761824   -0.92522588082994
H           0.01041643358745   -3.22638292192300   -1.60279501939777
H           0.48108828091334   -1.88760616762132   -0.95344848775657
O           0.88955036085274    1.29246018816028    1.78112403208042
H           1.48040883267193    1.48119907753840    1.03429252541886
H          -0.01079603346051    1.34087407730303    1.39450238491419
H           0.98002879619008   -0.20303236558748    2.28529622357658
O          -0.57091773260392   -2.64688068320694    1.32829640173803
H          -1.29249630560711   -1.99828718306866    0.88958799000807
H          -0.02487091657120   -2.92571136360258    0.50948881124925
H           0.06047636982756   -2.04107753175406    1.89838395794121
N          -0.63442946624161    2.60611900048776   -1.86740534302925
H           0.36604474373463    2.43884908636382   -1.89188485403677
H          -0.88830873386417    2.73703622015824   -0.89256419226345
H          -0.83063962678215    3.45838106353191   -2.37670634799717
