    26
        -50.44930435  Gyration_radius:  2.54977444474 Dipole_moment: 3.574
 S          -1.61112102330506   -0.03724021851354    0.47842370935650
O          -0.94977969639142   -1.15368915189598    1.12184410013975
O          -0.86252177197459    1.20856216514678    0.65700542067444
O          -1.85292461472230   -0.29169050962725   -0.94889321924539
O          -3.01193026111881    0.16251812021507    1.11643357814374
H          -2.77602496069723    0.29593470715832    2.07254181045327
O           1.02671136705370   -1.71113600777171   -2.60154937902110
H           0.44584417617150   -2.42922934860812   -2.86015802759727
O           2.95546618714819    0.26888341337274    0.17972763203045
H           2.32904379928844    0.93326621524619   -0.15151624215753
H           3.62633257430985    0.15836222659576   -0.49660276706626
O           0.99789743843113    1.92221808525993   -0.89343621747689
H           0.97059747237330    2.88041807428784   -0.91849618668631
H           0.28752232701219    1.64796256394404   -0.22417971495494
O           1.30213120411303   -1.90190717836329   -0.06559306641872
H           1.17795354386247   -1.82838665565179   -1.60309820667559
H           1.92922894139021   -1.20806637519215    0.21209559735446
H           0.46075325887233   -1.71040841276413    0.40125780191341
O          -0.22889774817367    0.45231921700057   -2.62782542452616
H           0.32991394909847    1.09289719091244   -2.08772526414526
H           0.33027189528804   -0.44210668792617   -2.70850979169514
H          -1.01658813320343    0.16589945570353   -1.93996058869695
N          -1.70975398711362    0.39230899752811    3.36382283232464
H          -1.17383809117132    1.22462815826118    3.15097109768010
H          -1.18219148901153   -0.39832943421944    3.00441679853927
H          -1.79409636749939    0.30601140985091    4.36900372772352
