    26
        -50.45558065  Gyration_radius:  2.44473176257 Dipole_moment: 2.104
 S          -1.35602842863126   -0.32396180032674    0.18596622228898
O          -0.17176208504165    0.42842138482912    0.63670887587714
O          -1.32335925949464   -0.56052150707966   -1.23976067557836
O          -1.46328034902525   -1.55501456886286    0.97022491158893
O          -2.58824535821219    0.54439791722230    0.53157973753900
H          -2.49912783076995    1.29433039546392   -0.14351300593453
O           2.24165876504839   -2.04547585256061   -0.28114806579831
H           2.36297664966745   -2.84779206237166   -0.79247247424291
O           1.01962427014535    2.16039350264994   -0.93649489895479
H           1.77799932709755    2.50465861330870   -0.46183777661484
H           0.56352724305393    1.55083483080335   -0.31273731028572
O           0.86511888937337   -0.12728775916018    2.94911543296711
H           0.50247328268333    0.23056305765137    2.09796630297280
H           0.16759103987506   -0.02840833643922    3.60015502050790
O           0.74674583889667   -2.35710200480590    1.72813890806843
H           0.94829478985482   -1.56318288122883    2.34094569121403
H          -0.23277801065558   -2.11679478386026    1.38662165722994
H           1.38010872181321   -2.24876564183805    0.90502312521673
O           1.19710043912907   -0.42528297097154   -2.00268427752559
H           1.87219988746397   -1.36593711756765   -0.92613731814954
H           0.23891776230207   -0.55314245665149   -1.83523834598010
H           1.34469968847684    0.51951726837949   -1.83545810537501
N          -2.01259256473293    2.15844515528786   -1.40519706365713
H          -1.85274893629237    1.32908684812913   -1.96956596589992
H          -1.11129878256138    2.60672729541841   -1.27763816233664
H          -2.61781500947134    2.79129345458921   -1.91256243914637
