    26
        -50.45558057  Gyration_radius:  2.44441257446 Dipole_moment: 2.106
 S          -1.27439172049221   -0.01206760913660   -0.59682138738548
O          -1.73791113492633   -0.04504881907566    0.77195052134983
O           0.14857033073544    0.36247954815745   -0.67721037689535
O          -1.47233946348287   -1.27963603693087   -1.30128991679646
O          -2.05947885645114    1.06881252391885   -1.37641112223674
H          -1.97455894430973    1.86370169472402   -0.75462690129894
O           1.41146170291739   -2.46189945843521    1.10865969779502
H           1.15402866571947   -3.19247317863867    1.67425114423813
O           1.24373584828668    1.95545067297027    1.10003213623950
H           2.17426541503242    2.03120701289703    0.88236920649732
H           0.84582061968641    1.39430515033184    0.39629755058624
O           1.63448409563016   -0.73725453762055   -2.49753215388406
H           1.14647234375119   -0.18929697704274   -1.83011359465469
H           1.21550126792359   -0.56535697693768   -3.34315209099371
O           0.37463880065047   -0.41948010584401    2.30574569552726
H           0.81746576652466    0.42933393752596    2.14465329534479
H          -0.48601444375586   -0.33415954126874    1.84260239543497
H           1.06171714493256   -1.63250654798421    1.56042846275046
O           0.56019399189077   -2.68276377646746   -1.25678127320337
H           0.92336861240438   -2.61552337085630   -0.27999577723722
H          -0.37342628959154   -2.17067310223262   -1.26509561632588
H           1.14194083154992   -2.05315840965274   -1.81481149082814
N          -1.66979428351088    2.75528314589364    0.54536284899576
H          -0.68536049595109    2.95236882590220    0.69218266040558
H          -1.91717589290460    1.99918567541547    1.17713307742423
H          -2.20321391219339    3.57917024022957    0.79217302931446
