    26
        -50.45558058  Gyration_radius:  2.44431951157 Dipole_moment: 2.105
 S          -0.83780999210857   -0.79443503738914   -0.80453893619973
O          -0.13464395262658    0.48420506261714   -0.59918220929207
O          -0.14611235099985   -1.88965394479545   -0.16312646160374
O          -2.22443941215947   -0.65053523021026   -0.35867448598122
O          -0.87404572863157   -1.03730400835830   -2.33164909642186
H           0.09689818228156   -1.25300562718225   -2.52215951177377
O          -0.47452593650813    0.56957244388865    2.95407143429671
H          -0.70038159303677    0.03739855883835    3.71937215390630
O          -1.53197844702912    2.64932972564922   -0.29849262064197
H          -0.90080685150900    1.90949578293644   -0.49355681272642
H          -2.10381835331015    2.72285938182997   -1.06515100772415
O           2.47631850873570    0.57928208179807   -0.33484918848669
H           1.50262843885890    0.57468510614750   -0.47745104683492
H           2.71474907424218    1.49339730699043   -0.17181554561462
O          -2.44109436487957    1.02817468710853    1.44041521286846
H          -1.64130728712571    0.84781724117590    2.08721149133788
H          -2.16520364084730    1.83382457047505    0.87374981596102
H          -2.42415409837171    0.24618920127540    0.71771366219087
O           1.32273065633159   -0.86283853207726    1.77185052086930
H           0.78209228236668   -1.36562482807075    1.12582415263239
H           1.95451005066864   -0.37094450798966    1.22276286608579
H           0.25820874436057    0.06659764988174    2.48029596175077
N           1.64573790008959   -1.62043424698724   -2.31130765105474
H           2.17981517598029   -2.17631840369218   -2.96706913479970
H           1.44701699555835   -2.18069693306735   -1.48751329082014
H           2.21961600973342   -0.84103751069781   -2.00673028190651
