    26
        -50.45558067  Gyration_radius:  2.44440188978 Dipole_moment: 2.107
 S           0.74375896931701    1.10458411257434   -0.45429413771477
O          -0.04431920068540   -0.09841574343158   -0.77592174176455
O           0.32404076000249    1.69530145411681    0.79643062581625
O           2.16624285823478    0.76074488473815   -0.47870930224679
O           0.49967236048729    2.11178759009894   -1.60236014171465
H          -0.45909222922771    2.38654747864060   -1.42550706570924
O           0.99011267338949   -2.02660517583281    2.04706782175139
H           1.42362658958135   -1.97107054579353    2.90080098933480
O          -2.54274023886976   -0.33843657515648   -0.00416698702376
H          -1.62312037530120   -0.25264715358324   -0.34389355999916
H          -2.84717171888641   -1.20386931226240   -0.28226771142041
O           1.13180826116036   -2.08903315221752   -1.95281042945090
H           1.52631129032791   -1.74577757036365   -2.75701470599119
H           0.56196597158092   -1.36196588045018   -1.59159857336422
O          -0.83463393912767   -0.20370835011999    2.21264170618216
H          -0.38082141566348    0.56714068051544    1.80970544005749
H          -1.61519146265824   -0.34090611842479    1.65191139558271
H           0.23863826014196   -1.35695402202962    2.08007500959590
O           2.54843893841959   -1.60836683091540    0.10641258258659
H           2.07532808119068   -2.00141621986344   -0.71087224554714
H           2.47523215353389   -0.56404110032904   -0.08962088764879
H           1.92022930580851   -1.79983933456661    0.91824211158054
N          -1.88151593315702    2.57615810443288   -0.70654707253176
H          -2.47046416665773    3.38747014789510   -0.84480393723078
H          -1.46010518261459    2.62629935004614    0.21637151661688
H          -2.46623061033871    1.74701926229003   -0.71927067972657
