    26
        -50.46272422  Gyration_radius:  2.48111334834 Dipole_moment: 6.120
 S          -1.51242424351536   -1.70664672645594   -0.51809324879796
O          -1.51972116872650   -0.32315304557756   -1.03280596393900
O          -0.76375843077247   -2.60903096459636   -1.35466942741212
O          -1.16651483954499   -1.71489159299431    0.88188385030820
O          -3.02831275151432   -2.18893083115352   -0.62481545157383
H          -2.98761949934789   -2.73832899270835   -1.40060938324610
O           2.11560577608260    0.07344807994203    1.05766203696963
H           3.01564777157943   -0.17047494478099    1.27792294773754
O           0.57498020066027    0.78641889818357   -2.36456487668995
H          -0.27327925306836    0.40695714353870   -2.07520287016034
H           0.78708509833668    1.47979761089213   -1.72591569671079
O           1.26694997492621    2.35733330066136   -0.05377349318918
H           1.65323609281240    1.55069729819784    0.36168774356197
H           1.94988341940751    3.02861060414825   -0.04969713440401
O           1.55275351409486   -1.34188558710715   -1.01451480144061
H           0.78415566917678   -1.93852459853592   -1.08534794885207
H           1.38465915599277   -0.64542419967420   -1.68300545582165
H           1.85243842959778   -0.54066834643526    0.30175924656723
O          -0.12596568600761   -0.05764509260952    2.62815114843790
H          -0.53889589199781   -0.83846238006602    2.20329303305813
H           0.78302509524670   -0.05346124929634    2.27714659600282
H          -0.81367306814265    0.91948373437051    1.66145376301540
N          -1.17921108742599    1.46677329188305    0.80361922560347
H          -2.00768795509045    2.00921283042183    1.01862071751007
H          -1.39167298875591    0.72757536142380    0.05252805892540
H          -0.41168334400404    2.06122040832879    0.45728737453949
