    26
        -50.45064702  Gyration_radius:  2.41966084483 Dipole_moment: 1.252
 S           0.76936216430538   -1.71654710874324    0.80396851662491
O           0.74792919866430   -0.51958002441391    1.62838546139300
O          -0.16718385861000   -2.73123129510575    1.23292387753884
O           0.67929262471306   -1.38558988872510   -0.60864897616342
O           2.21479492007230   -2.36129697936061    0.98447722189109
H           2.07661830914618   -2.95139552477530    1.71833286765233
O          -1.44470140166117    2.10009406426344   -0.28733326791794
H          -2.31975683658453    2.44967864510006   -0.46299263339344
O           1.69832231755513    0.73801158890907   -2.25513059291094
H           1.96353948674748   -0.16944225311536   -2.06456711698663
H           1.78459195386275    1.21828186306629   -1.35898960560351
O          -2.11399847261701   -1.45060860525062    0.05559709352488
H          -2.70234468278363   -2.06384230948711   -0.38801067265255
H          -1.43137244389691   -1.99858799205256    0.50084071947846
O          -1.66178722759811    0.58907556769059    1.78160269367635
H          -2.12990227618161   -0.13782791908169    1.34060570590008
H          -0.75442426395548    0.24002984648795    1.90429419789811
H          -1.51858133665540    1.58198581622411    0.57841743691803
O          -0.70770745573140    0.27689387644437   -1.90923143830329
H           0.28696210651685    0.56681039920178   -2.21899376105352
H          -0.44570780787105   -0.50800905729152   -1.32365153680555
H          -1.03689135069671    1.01950656734040   -1.27498195543500
N           1.61199719822229    1.73999196232841    0.14173735115899
H           2.39954718298067    2.19791031256401    0.58148528437269
H           1.38547863955133    0.91093356557220    0.69728251202573
H           0.81592332250906    2.36475488218743    0.20258061717336
