    26
        -50.45064739  Gyration_radius:  2.41943015168 Dipole_moment: 1.250
 S          -0.95397733793605   -1.18629684162552   -1.36595959881575
O          -0.13574089515607   -2.05917630205242   -2.17791738346118
O          -1.00596446488318   -1.57429901546498    0.03399482177771
O          -0.63949545266411    0.22537547777540   -1.51078400762329
O          -2.43598684216670   -1.33775890503062   -1.92975395721514
H          -2.43742680729214   -2.23741954758062   -2.24059967466801
O           1.55936553110623    0.72332346763763    1.90440328251699
H           2.46466916448224    0.86397767791522    2.18631209755994
O           2.01818945964413   -0.84767351043951   -1.33753147797020
H           1.25324799239987   -1.33408012604239   -1.71550276536138
H           2.64211742844298   -0.73010499407093   -2.05576469372484
O          -1.30817328793693    2.60710786004140   -0.05206193752669
H          -1.50694871073336    1.93880621025879    0.69318805151436
H          -1.63691108552308    2.17680880494226   -0.85014894183186
O           1.40057678663204   -1.72895982054425    1.14920303899458
H           0.47073350093550   -1.81667639841750    0.85276714711665
H           1.89686124449889   -1.62358568910892    0.32163570364706
H           1.48102387052864   -0.26374758666670    1.69612824695684
O           0.99758790295549    1.76271935624250   -0.35417476719768
H           0.61852034129609    1.00267255704273   -0.90728318811818
H           0.07303219213379    2.29945393962162   -0.18980656690040
H           1.25947453701995    1.35990540348088    0.55761130878972
N          -1.53979716187091    0.67990443829314    1.67647712935053
H          -2.36429250526690    0.54034003406487    2.24571644873468
H          -0.73601824016005    0.70139583056261    2.29391393882564
H          -1.43466717049086   -0.14201231080929    1.07593772464356
