    26
        -50.45558069  Gyration_radius:  2.44455290394 Dipole_moment: 2.107
 S          -1.25713291917769   -0.28993603934864   -0.56134356266232
O          -0.57324675733454   -1.45103273000281   -1.08465811365978
O          -0.47786859361341    0.36131059511253    0.50649197395033
O          -1.57474618118271    0.70186091865773   -1.58975785752858
O          -2.59633975346662   -0.72953581203663    0.07529380340442
H          -2.29450180240776   -1.49521155801111    0.66555844468562
O           2.32867147810527    1.24039254936090   -1.52309548637634
H           2.74749379737701    1.07705947524227   -2.37030564153453
O          -0.52900192367665    2.94823588190553    0.69772704116143
H          -1.44954192443396    3.20517869504677    0.78013384400078
H          -0.50901052190629    1.95976774738226    0.77780992435718
O           1.10901463772757   -1.02453594572708    2.07395283904459
H           0.48659764575678   -0.49070773051922    1.52974044872012
H           1.54183783732277   -0.40495867045042    2.66365571716679
O           1.99689359399810   -1.14315026021774   -0.58075523367141
H           2.21608897165316    0.33484488621672   -1.09684549856697
H           1.95941897729657   -1.20974697910535    0.38704566778742
H           1.08203510919497   -1.34476477348549   -0.87205511006042
O           0.13752037630466    2.47801885789711   -1.71311504838455
H          -0.03693116197910    2.86437604615233   -0.78214823431148
H           1.05574457746890    1.98488821963380   -1.64887718032368
H          -0.60719494177803    1.71884644568706   -1.76933685574010
N          -1.38884198318779   -2.64510674274503    1.32473433886571
H          -0.91169883648399   -2.83459762121944    0.44816974963926
H          -1.76664086016448   -3.51058610126246    1.68860640086885
H          -0.68861886138366   -2.30090937415927    1.97337361916515
