    26
        -50.45064770  Gyration_radius:  2.41932941399 Dipole_moment: 1.252
 S          -1.58467510490658   -1.15138991144132   -0.58723843026199
O          -2.40179351558550   -0.65673227298038   -1.67269391050767
O          -0.25236737501692   -1.55893700170303   -1.00210710442109
O          -1.53128271854788   -0.26736006731693    0.56529918002161
O          -2.31404817479313   -2.46681237183252   -0.06311102416451
H          -2.71964373130848   -2.79737690202110   -0.85822162433605
O           2.12849076683099    1.42771146608175   -0.12029593523404
H           2.51927802665227    2.25956973648761   -0.39252047785295
O          -1.20950787101849    1.66150405364020   -1.53685669134399
H          -1.71843389817008    0.82683404510585   -1.63105066040475
H          -1.84025669439135    2.37423728678198   -1.65136394204326
O           0.11181029535046   -0.09791400575256    2.91358709883961
H          -0.76074295665602   -0.45618881716287    2.71247748716008
H           0.74958680806996   -0.65878015416777    2.34762803810615
O          -0.04193371656328    1.67398317420161    1.19407640163813
H          -0.71515464293846    1.10000608563757    0.69975111265216
H           0.08495050122451    1.03830375200920    2.06023662668565
H           0.83973781795891    1.61324580689009    0.66427373345132
O           1.08092842518511    0.38694293302213   -2.22513677778561
H           0.68130724021756   -0.44435153791180   -1.89436382609119
H           0.32730107462206    0.99547842978415   -2.28802072025038
H           1.80014204982221    0.98209784510325   -0.96701614658096
N           1.57167547416157   -1.34724963145373    1.16348942949980
H           0.89493936874093   -1.50421358612153    0.41201485738328
H           2.03101141301337   -2.22868118258904    1.35159319488967
H           2.26868111804826   -0.70392719229601    0.80557010095078
