    26
        -50.45558044  Gyration_radius:  2.4441865785 Dipole_moment: 2.106
 S           0.16207832075410    1.21731829023213   -0.68834414354484
O           0.19625201992391   -0.25572722039917   -0.71447904416285
O          -0.78111641063938    1.70892145708937    0.29067054431185
O           1.52073429548232    1.72016905194164   -0.48050411241408
O          -0.28078884923417    1.67325858839667   -2.09836490187143
H          -1.25615403035867    1.40046078217794   -2.09871879381807
O           1.36520941761930   -0.69543339266659    2.63023234934487
H           1.49589921080195   -0.24631025224789    3.46750094735774
O           2.45975879618460   -1.44858368405232   -1.14458727164026
H           2.80187894658142   -1.10965210304555   -1.97415988204203
H           1.53295458858923   -1.10414008555901   -1.06572113023400
O          -1.93173920817563   -1.68073047324893   -0.13412831652357
H          -1.67682700241661   -2.60408028135315   -0.17075859731823
H          -1.13448442014564   -1.16897582127298   -0.40061019898609
O           2.90218431587942    0.12617923710369    0.80527897276412
H           2.35777352970393    0.89337884546757    0.30654715674081
H           2.28686052108631   -0.21764867620375    1.57591907402580
H           2.90308938566665   -0.61336707870038    0.09860250334342
O          -1.11079082437690   -0.19076977483994    2.08986150269349
H          -1.55492239563382   -0.84344243734976    1.52462212625498
H           0.39451570905897   -0.55962695931294    2.39785055551234
H          -1.03111229087537    0.60536069137251    1.52219275452162
N          -2.70016266695459    0.90789050917450   -1.59917257894200
H          -2.59138143481118    1.36042133864621   -0.69619033405920
H          -2.76155853038767   -0.08962061942566   -1.42408001137953
H          -3.56815100324959    1.21475004801450   -2.01945917983863
