    26
        -50.45558064  Gyration_radius:  2.44447438241 Dipole_moment: 2.110
 S          -1.03936182955462    0.58250708092634   -0.74732803154601
O           0.40750397921467    0.40622538885571   -0.53020637156275
O          -1.78717483600182   -0.57279506416491   -0.30493145317695
O          -1.46813319485143    1.82535667718966   -0.10407105451683
O          -1.23763466650120    0.76711556448647   -2.27005006325266
H          -1.04723916742958   -0.16752216536472   -2.61065669192855
O           0.25865262987294    0.17684603553989    3.03010444865749
H          -0.33923157006526    0.05291823902664    3.76972714178006
O           1.51880173290378   -1.97124261364217   -0.62233170175055
H           2.44874867849851   -1.86101475566675   -0.41744378830272
H           1.13365209327355   -1.06556255676774   -0.62827443266928
O           1.83433570449372    2.46432379127677    0.14808738647974
H           1.41014558974718    1.63634286101546   -0.19581649819880
H           1.69631713480036    3.13499910167994   -0.52372352349088
O          -0.05953568693049    2.38327105932693    1.84672367274513
H           0.07466065017785    1.48351714431746    2.35915239989386
H           0.80400760962754    2.53560875173015    1.32015126685148
H          -0.75188395155127    2.18102418051476    1.06292158825686
O          -0.31363698657653   -1.81989931256125    1.49193024112512
H           0.09964226232825   -0.60709939794569    2.41824543663035
H          -0.97247024979388   -1.41981555632922    0.88505309537089
H           0.40192312766038   -2.11529930512274    0.90610830197467
N          -0.77762948250444   -1.74949297276570   -2.64858536792617
H          -1.39223100537885   -1.91888069102988   -1.85769366420111
H           0.15686289416997   -2.01825732856227   -2.35877753817706
H          -1.05909142965658   -2.34317414590754   -3.41831478908922
