    26
        -50.45558061  Gyration_radius:  2.44445522198 Dipole_moment: 2.108
 S          -0.36250532897222    0.63073026720788   -1.20436054091939
O          -0.00394938630306    1.83624181637444   -0.49166449763346
O           0.13697762394485   -0.57316557326579   -0.51665523781107
O          -1.80468549718454    0.49418409761989   -1.41370464951915
O           0.29995308832668    0.64722046273214   -2.60186287139550
H           1.25820408644909    0.87444897161599   -2.36566654279397
O          -1.77045181334188   -0.15149502292121    2.47397479738818
H          -2.30172029768686    0.47638169334309    2.96728486366012
O           2.34454447847031   -0.51431337582422    0.90412941467193
H           2.46018503062796   -1.38401235635537    1.29034220795963
H           1.54006277653329   -0.57311295720556    0.34039968216348
O          -1.30780201530601   -2.72771910276377   -0.55380314975821
H          -1.47473614139814   -2.93742641089537   -1.47482267972652
H          -0.63552968413447   -1.99844270036752   -0.55313355283764
O          -2.85638615301514   -0.90939157517167    0.32565884779970
H          -2.42900410174533   -0.60249751381118    1.22762976538749
H          -2.49332402154576   -0.24198468770138   -0.42062956883207
H          -2.37779707656711   -1.77693857654546    0.07146713116456
O           0.40613905422688    1.16807202341716    2.02628746358701
H          -0.88901532462009    0.30766778543860    2.31090603333453
H           1.20349327596241    0.62870438598275    1.90039143969602
H           0.22875709398322    1.54718317553268    1.13902406046399
N           2.55515439531847    1.33477916551319   -1.53893042020475
H           2.90834078262722    0.63349725229577   -0.89633475431556
H           2.02239216751136    2.00014329068160   -0.98635874091555
H           3.34270297783639    1.81124546508287   -1.95956848062514
