    26
        -50.45606790  Gyration_radius:  2.5789308669 Dipole_moment: 2.245
 S          -0.68622317775788   -0.26501401701969   -0.52780064287775
O          -0.83433415328531   -0.42944961728212   -1.94776901819666
O          -1.77691242815811   -0.98032508435550    0.20659249447812
O           0.60203927991309   -0.99972714074113   -0.06926012342691
O          -0.59149001774957    1.11423473820599   -0.09811727506861
O           0.92182701966981   -1.20546649966068    2.62344156215629
H           1.22170645955788   -2.09562719436131    2.81645883015388
H           0.94658512937612   -1.10784381055562    1.65428865784888
O           0.93840081387249   -1.61896627201804   -3.54453521254902
H           0.18598891402474   -1.20235216998624   -3.07723120427486
H           0.73393088916069   -2.55314432926597   -3.60484441586451
O           0.94860058486014    1.82531012873641   -2.14887822844392
H           0.39733905864285    1.55788717063671   -2.88922605403398
H           0.37891064285992    1.74215811829696   -1.36068602598144
O          -1.64950814442388   -0.52701588486216    2.60730788964340
H          -1.64915855242555    0.48635479798186    2.65237887319930
H          -1.75993667266005   -0.78065635702526    1.32774822729988
H          -0.72395132605538   -0.80032986333618    2.80776498447102
O           2.36740644521390   -0.35433237158082   -1.68131893362733
H           2.06595267220522    0.56541884644412   -1.88536726994867
H           1.40890070011946   -0.74102091941653   -0.72412271919947
H           2.09606901258157   -0.88532763396905   -2.46240614134277
N          -1.44543728238412    2.07339442319076    2.43863616295101
H          -0.72393787526676    2.53385905759100    2.97827347325420
H          -2.26240053976866    2.66968163040206    2.42901195829396
H          -1.11036746211267    1.97830025394691    1.47966014108328
