    26
        -50.45558056  Gyration_radius:  2.44432509814 Dipole_moment: 2.111
 S           0.44315328989753   -1.01508854191506   -0.86616900617212
O           0.01734156207161   -1.89165704526476    0.20139477576453
O          -0.09021135356045    0.34761692714401   -0.69283866949301
O           1.89854685326511   -0.94151570755602   -1.00359416498726
O          -0.11400677187491   -1.53904569040914   -2.21056114690871
H          -1.08995445253017   -1.68123061188157   -1.98027973767301
O           1.58500168938989    1.05543046024494    2.37711447105979
H           2.07135915297123    0.65384892041936    3.09967654556342
O           1.37681877096465    2.36762049132115   -1.39940925247516
H           0.69811604194515    1.67696402179360   -1.18479762120067
H           1.61258971544518    2.23479014718028   -2.31968741578548
O          -2.39899336367242    0.76723590462375    0.48597922116932
H          -1.55362926693305    0.63278760506537    0.00052857800721
H          -2.53235585450367    1.71569268754666    0.52576437410530
O          -0.56791902822705   -0.37131442597061    2.27551303330497
H          -0.33058585736397   -1.04060291326825    1.59866451838244
H           0.71277503535882    0.55471570827861    2.32569285756133
H          -1.34783797904308    0.07433657437357    1.90729042096749
O           2.83520662082678    1.01032399088857    0.18515623889634
H           2.33894282839434    1.04080899591263    1.10326380233815
H           2.52024151110382    0.11340220950005   -0.29576000720674
H           2.38708775811714    1.72119393260478   -0.39774648003443
N          -2.45056581567690   -1.83549926712062   -1.14211975464822
H          -3.21088755378263   -2.44172129228723   -1.42259137307610
H          -2.84113158484383   -0.95632601709326   -0.81958011218127
H          -1.96910194766516   -2.25276707417013   -0.35090411526842
