    26
        -50.45064739  Gyration_radius:  2.41967608287 Dipole_moment: 1.249
 S          -0.67459018251400   -1.73730028622929   -0.84220013913044
O          -0.86659764679602   -1.54892711664065    0.58635929064103
O          -1.90250876645091   -1.67748034252810   -1.60327436022711
O           0.38075500957224   -0.87684319628236   -1.35085132245168
O          -0.12284179163496   -3.21974153384415   -1.02999946597337
H          -0.92732311891694   -3.71827848526758   -1.13126581879185
O           0.02051973109410    2.19528673311850    1.32761415469640
H          -0.27866652492792    3.10476411996719    1.37361894500071
O          -1.84373938759960    0.93140098904708   -1.52369250036866
H          -2.10918943699192    1.30211799290840   -2.36689872140587
H          -1.92023558576516   -0.04327752755268   -1.61591066230234
O           2.90007155189571    0.05921986450054   -0.33119819507218
H           2.62431027411756   -0.64455068436985   -0.93009112237018
H           2.48150467139392   -0.19475887434487    0.56424853114581
O           1.00491683515835    1.53345309451174   -0.92876652371845
H           1.93966839399063    1.04494505919960   -0.69095669973618
H           0.48693526118826    0.70889744583753   -1.21086586727753
H           0.60494622667005    1.83766194874099   -0.02915992419367
O          -2.09067426945415    0.73668927588226    1.16761412016855
H          -0.81393258308556    1.62407372215013    1.35764495179814
H          -2.31363282175059    0.96212092714246    0.25016825177543
H          -1.73436687455657   -0.17380174866664    1.10288358665072
N           1.49010177479929   -0.50563851706441    1.77797628231337
H           1.82392948781795   -1.09947525010651    2.52579856374151
H           0.67503023559594   -0.96192683462217    1.35997042222372
H           1.16560954718944    0.36136923445956    2.19123422287352
