    26
        -50.45064692  Gyration_radius:  2.41965882032 Dipole_moment: 1.252
 S           0.76340708961234   -1.76809612359232   -0.68954138954169
O           0.93082641835942   -2.84048744240367    0.26580701907015
O          -0.62711121460440   -1.45946546663566   -0.97950619276934
O           1.51449543304419   -0.56560565668774   -0.36864013748196
O           1.39941093603324   -2.30040124517417   -2.04954775049309
H           1.24992087033181   -3.23798334871395   -1.98241187671991
O          -1.53998504937641    1.66599622320741    1.19762662901962
H          -1.85101599335001    2.00392434391903    2.03897829046906
O           1.47715232537535    2.15044409573812   -1.30695848334666
H           0.54272369838294    1.89203193246283   -1.62529956545842
H           2.01380975086095    1.36980062158792   -1.48789845643750
O           0.45724686016213   -1.18486843675196    2.22829843461243
H           0.66731925421988   -1.85984771808408    1.54661843610471
H           1.04945347449784   -1.35271646777269    2.96324040087645
O           0.99625010102879    1.47630619725847    1.02445371910759
H           1.17166519678820    0.51508801966311    0.75438393172349
H           1.24564602227322    1.94139229538579    0.08059461925399
H          -0.02466694494289    1.57044163776428    1.12829906595722
O          -2.02778954748720   -0.85859435878567    1.19699769887149
H          -1.33451330186959   -1.10693188926905    1.82919087380149
H          -1.81714131617638    0.69362161734315    1.16658754881985
H          -1.67324286028095   -1.15837883669521    0.33411046717161
N          -0.90403444403281    1.24019435945825   -1.81422060207167
H          -1.34252504811989    1.30707052841306   -2.72337645979528
H          -1.54828920429311    1.62046411203002   -1.13003622341010
H          -0.78901247645887    0.24660100641742   -1.59774998731049
