    26
        -50.46272424  Gyration_radius:  2.48110026416 Dipole_moment: 6.118
 S          -0.14892727696830    2.32672940576525   -0.18085920228080
O          -0.55764107713624    2.76402666636374    1.12920325395043
O           1.08186413413128    1.51217140223579   -0.15343141134557
O          -1.16276411545704    1.66994109370103   -0.96862164457449
O           0.25889940701816    3.65485094387770   -0.96293212638452
H           0.35279748109672    4.26668792350353   -0.24023422320619
O          -1.52119426485852   -1.71647971732799    0.58103529558530
H          -2.20911068283720   -2.17831462196150    1.06227030618119
O           1.03550494775661   -2.45314236291605    0.27652626870569
H           0.08084403517845   -2.25457251705067    0.42353979140963
H           1.17805804951610   -3.36002147555425    0.54918492577148
O           1.71651871194193   -0.16738185526970    1.88821945774813
H           1.65862180676035    0.54260262903923    1.22500203078952
H           1.69022805591519   -0.99634712657308    1.39248389625970
O          -1.59304703577907   -0.71608452783149   -1.96876362753616
H          -1.66774139258980    0.23303195121493   -1.73576114826076
H          -0.05710130043444   -0.67110721012096   -1.95293990114286
H          -1.77144001005823   -1.17800416641348   -1.12952151411985
O          -0.93994406064253    0.30145389408955    2.06556507257712
H          -1.34837416482580   -0.87441604827780    1.10918074166356
H           0.00206199402753    0.12472621305874    2.26949574191466
H          -0.95498249422197    1.23038074467652    1.76781404660706
N           0.98870829439469   -0.55764335451122   -1.70267383135219
H           1.57568789554275   -0.49131719175260   -2.52602349845986
H           1.25842943858103   -1.35156144497653   -1.10322460243780
H           1.05404362394819    0.33979075301098   -1.11453411806256
