    26
        -50.45064686  Gyration_radius:  2.41941733537 Dipole_moment: 1.254
 S          -1.21370113653209   -1.43494051339921   -0.80718166025951
O          -0.76269792135847   -1.60734143463135    0.56386447493051
O          -2.62299934254777   -1.13111514744626   -0.91867576276761
O          -0.35063405267322   -0.51922883401312   -1.53495862630346
O          -1.01929853228713   -2.84323706516262   -1.52555126951892
H          -1.86248544423427   -3.25845880770364   -1.37543902507235
O           0.89513383819879    1.78178993529767    1.61359910778076
H           0.78017784767454    2.66150740372508    1.97652444765945
O           2.47110293124737    0.01645107483578   -1.54987280961766
H           2.43232453165847   -0.43808041970319   -0.63719898459247
H           1.86726116300167   -0.49907913539562   -2.09739153300687
O          -2.14514925779604    1.36553599009115   -0.32401762610897
H          -2.67009723758866    1.95052902525205   -0.87296707939281
H          -2.39934106136896    0.45104203413791   -0.57610312774155
O           0.74389710522665    1.67528754617495   -0.92860189520249
H           0.03840493725568    0.97368961446287   -1.12186652448896
H           0.80327861544681    1.75666993949693    0.09715567191585
H           1.60832371306365    1.10192381919029   -1.23427952128575
O          -1.28161055020729    0.50100724701211    2.09522832686423
H          -1.83037865786666    0.96247669504450    1.44111801616389
H          -1.12369631879983   -0.37629595239317    1.68825398464805
H           0.07435856197136    1.25688125238843    1.88627435684635
N           2.00252100419597   -1.00397996915612    0.79443204945348
H           2.01147920904965   -0.25717463268465    1.47998019620235
H           2.52418638865245   -1.78180240167815    1.17674059049130
H           1.02963966663838   -1.30405729376488    0.69093421237806
