    26
        -50.45064754  Gyration_radius:  2.41918287139 Dipole_moment: 1.256
 S           1.48271620087784   -0.30908002740796    1.37466372668000
O           1.29333440543439   -1.37980810281462    2.32778823223597
O           1.70222821845065   -0.77376880390459    0.01489752253350
O           0.45310234692467    0.71573164696079    1.42230216975244
O           2.82146797228704    0.43107869105201    1.81872325927146
H           3.32183915715268   -0.28155898184415    2.20307083647624
O          -1.75169060468894   -0.46760187637196   -1.81590699977112
H          -2.59395114265855   -0.87297645897509   -2.02824947353144
O          -1.19495951904831   -1.62979351463712    1.57910793140786
H          -1.76317686038303   -1.77991066194791    2.33645822587181
H          -0.27886829066885   -1.57836218230524    1.92938659786451
O          -0.32287690607414    2.88258223953855   -0.28959990870445
H           0.20817000957479    2.79490347871085    0.51077601329250
H           0.18780109884888    2.34301064662575   -0.98931298768230
O          -1.78880296473822    0.97480817272916    0.28547812954587
H          -1.30925379052030    1.90025939592911   -0.00538715151545
H          -1.81263376716418    0.38784080030686   -0.56124525213524
H          -1.04356959994254    0.61099736314057    0.86761455621460
O          -0.26000370118326   -2.33364876905789   -0.86563651784228
H          -0.71164948363772   -2.41354951079406   -0.01022861368075
H          -1.14180599133456   -1.22241608021886   -1.52982022124779
H           0.57463625776513   -1.86986472748779   -0.64538781164504
N           0.87542278262712    1.19276386402693   -1.85927382691767
H           1.62671977731522    1.45199556653819   -2.48507305288125
H           0.17378576063709    0.70257713432987   -2.40256373615543
H           1.25201865415607    0.52379067790790   -1.18258167746275
