    26
        -50.45064690  Gyration_radius:  2.41955691348 Dipole_moment: 1.251
 S          -0.10284240618793   -1.10333601857769   -1.71948893103192
O           0.06805933825815   -1.80762664813913   -0.45947354046477
O          -1.40718873414632   -1.29100344503765   -2.31470399024483
O           0.30153085406672    0.28825117210685   -1.60489846423927
O           0.93338894491262   -1.75074148783131   -2.74131756703727
H           0.41286846503761   -2.44206599908528   -3.13743506006654
O          -0.51267503997394    0.83822131242304    2.36933429522006
H          -1.13685827273229    1.29052189841098    2.93913145899883
O           2.37933920277968    1.67841092561518   -0.18764970702611
H           2.25882321871595    1.36108573972818   -1.09038699176163
H           2.38431785304140    0.82947149919789    0.37829158204340
O          -2.41533299972891    0.49685053725105   -0.70141958533243
H          -2.10465409761337   -0.16721194332734   -1.35486264286320
H          -3.03460832264000    1.06138259457200   -1.16707811346132
O          -1.76978741290718   -1.15737562966371    1.34588282186493
H          -0.98454028361704    0.00497427657268    2.04273825526810
H          -2.32346617808804   -0.64140514852195    0.73830255560874
H          -1.10236925729528   -1.56942192945959    0.75859776720950
O          -0.04023139493638    2.04678653397075    0.17560980413651
H          -0.25193953889058    1.58829664791832    1.07418711744737
H           1.03756304646604    2.05938818483848    0.09237164204415
H          -0.22598752199455    1.36213656413044   -0.54854729025746
N           2.01024187067255   -0.51432873287646    1.15879552105705
H           2.76086005611942   -1.14200963809068    1.41548938474444
H           1.37668956169830   -1.02573049506897    0.53884491172726
H           1.48879903893705   -0.29352078108950    1.99968475639954
