    26
        -50.45606823  Gyration_radius:  2.57860910946 Dipole_moment: 2.266
 S           0.68188809802094   -0.55165134308106    0.22768390869426
O           1.15799316656955   -1.42281889866505   -0.89227005928180
O           0.94269581083157    0.84401485977684   -0.05555359093240
O          -0.85623691353240   -0.76230596768149    0.22225082301087
O           1.20825416400015   -1.00439322952429    1.48594330097475
O          -0.26087209644716   -1.85921390882407    3.53980733270125
H          -0.38845037815462   -2.80599808119018    3.46601992924993
H           0.39855725718401   -1.61654791086148    2.85841875596388
O          -2.07095469795964   -0.38033698585049   -2.18028257842754
H          -2.70629472399101   -1.08795753528756   -2.30365049005277
H          -1.74886402423013   -0.45290846211184   -1.26350153952453
O           0.49155834428193    1.61364814818108    2.45172566767399
H           1.11879548818724    1.06082285198639    2.92559682312656
H           0.71233271035773    1.50188248525152    1.50754245547377
O           0.43592814841592   -0.53242447350044   -3.05301466547498
H           0.77384225809201    0.42417853687345   -3.03423574901755
H           0.85352855661412   -1.03060291531592   -1.91899934177149
H          -0.53910725019732   -0.47038630528182   -2.92169403650421
O          -1.67082902038974    0.09582355653943    2.39783223871399
H          -1.01803280311127    0.82642943763611    2.53395613659421
H          -1.26703143313997   -0.38933658678327    1.13774188169946
H          -1.36898305298797   -0.62364298916724    2.99516851050528
N           1.21480421090233    1.93185517138144   -2.66732316204915
H           1.19453983262614    1.77390384881438   -1.65951052138592
H           0.56607237375165    2.67856381932194   -2.88032954201606
H           2.14486599430809    2.23940288736033   -2.91932249794285
