    26
        -50.45064691  Gyration_radius:  2.41953640458 Dipole_moment: 1.253
 S          -1.62431917696222    0.99792122297206   -0.74173402961112
O          -1.55635700241737    2.44142434230306   -0.79069830970010
O          -0.73125637431175    0.34156823900460   -1.68222808961137
O          -1.48335217424926    0.44285793793271    0.59437613387625
O          -3.10574857345379    0.62149002831915   -1.18984162434656
H          -3.31939731896791    1.33506811561096   -1.78229521999081
O           2.43325924674946   -0.72644812626476    0.36239580347803
H           3.29684490210756   -0.48647837137181    0.70219170881452
O           0.61493311103140    2.39973167310682    0.65866357097045
H           0.59650814212502    3.09857486187194    1.31469414633398
H          -0.20806313355469    2.49656007794153    0.13159321424236
O          -1.00475728655621   -2.18678938419092    1.64932876216700
H          -1.78219173745696   -1.63153753363483    1.51748276370738
H          -0.65916854545761   -2.36295289438785    0.70574154602893
O           1.80759879263129    1.06258216662439   -1.37520664973316
H           1.62923328863514    1.77633389644395   -0.74226663593046
H           2.23422301816780   -0.07273523977095   -0.38353991091099
H           0.91531374313675    0.78777815818885   -1.67267372014255
O           0.51319683359393   -0.25978693858156    1.97247753117725
H          -0.06522317156418   -1.17302539133788    1.98616615268452
H           1.31429219131642   -0.43846894240430    1.34910468854938
H          -0.14050227490625    0.30907137502642    1.44640846758239
N          -0.03151868859150   -2.25153890375833   -0.76031047279677
H           0.97943892357508   -2.20240393308541   -0.70237581547948
H          -0.35427807322267   -1.35371953268169   -1.13045182180243
H          -0.26870866140077   -2.96507688388798   -1.43700217960368
