    26
        -50.45064716  Gyration_radius:  2.41932401016 Dipole_moment: 1.254
 S           1.10487342959522    0.72421115531796    1.56155917881513
O           1.90227325737808   -0.22246777201617    2.30910866273637
O           1.59103725864182    0.95512347887887    0.21129038653699
O          -0.31946828907274    0.43421927502544    1.56719005675278
O           1.24604465387748    2.11014576955691    2.33377331435460
H           2.11934595677239    2.03978447920257    2.70574322087165
O          -0.61683257805054   -1.26413710134733   -2.14538806693750
H          -0.75479614321464   -2.11830726164818   -2.55792591696439
O           0.70982987413302   -2.20464549415180    1.09954264253809
H           1.18432729280804   -1.51375079831495    1.61148929161620
H           0.52444388421556   -2.91488394141986    1.71615137801457
O          -2.57666573043690    1.36488900402164    0.05697302207232
H          -1.85450559796310    1.64370849805390   -0.60787816746507
H          -2.19604449987027    1.56830856258532    0.91952471579830
O           1.77900503022027   -1.28013341280396   -1.21283001406248
H           0.35439512707258   -1.24336088281224   -1.86256884114352
H           1.86306110500380   -0.40246659499826   -0.78530104244202
H           1.60642406373034   -1.88177710401787   -0.47099894112201
O          -1.80228285618764   -0.98449698799332    0.09370279448360
H          -2.30744444890365   -0.03067574345663    0.02288555293545
H          -1.34112722335124   -1.13146370180313   -0.81623365105836
H          -1.07598150313621   -0.70719338256619    0.74387111872188
N          -0.52923692814122    1.77278003820526   -1.49150145372820
H          -0.52308262409852    1.06094929721274   -2.21329756164703
H           0.24602219873481    1.56334199830341   -0.85718851725200
H          -0.33361471975361    2.66229862299100   -1.93169316242803
