    26
        -50.45064662  Gyration_radius:  2.41993783113 Dipole_moment: 1.246
 S          -0.03030806305390    0.28419613659154   -2.02571748224201
O           0.22371363492422    1.43363335600996   -1.17304547747405
O           1.12753666464010   -0.14537278734392   -2.77778258520501
O          -0.68871740408989   -0.78295182075948   -1.29010121087988
O          -1.09695510624021    0.75559086162610   -3.11073851596045
H          -0.53681360167093    1.06264084888015   -3.81637146047238
O           0.81252254903396    0.02296454498870    2.43217468892180
H           1.43234843863788   -0.33416709204756    3.07023283507334
O          -2.66884817008436   -0.87885873556446    0.79593728829419
H          -2.68082457760411   -0.97945742953855   -0.16307857406849
H          -2.37164591439551    0.08597867838454    0.94366677216715
O           2.05142309749855   -1.38381370781873   -0.67303030196234
H           1.75789591998124   -0.96239963697638   -1.51004029995535
H           2.42222874680551   -2.23359251030135   -0.91669772206953
O           2.22015506284547    1.03655772862517    0.53453347889050
H           1.54683321283259    1.36186144127540   -0.09867565160452
H           1.37095542446984    0.49943524620018    1.73582982961899
H           2.51091121100940    0.19475745698651    0.14886936331117
O          -0.36173507950659   -1.74503776434462    1.02114013508523
H          -0.19389144406231   -1.47060183006142    0.05938088674985
H           0.12892123801073   -1.05787571609891    1.61248188841216
H          -1.40955844134009   -1.48521741320844    1.06670233708529
N          -1.56223828445034    1.46127994370152    1.03428231481096
H          -2.08984250752117    2.32327342067646    1.07768108632520
H          -0.98052392750621    1.49561493062266    0.19303875832112
H          -0.93354264915799    1.44156185954464    1.82932762884796
