    26
        -50.45064695  Gyration_radius:  2.41961181901 Dipole_moment: 1.252
 S           0.33117029346126    1.14408710299408    1.66302575403913
O           1.05896422967519   -0.10747309704177    1.53344107695297
O           1.16439094217306    2.31609284912237    1.51157784556148
O          -0.85887223205787    1.15094824990575    0.82825567256801
O          -0.21441018043812    1.19469455717899    3.15871444819501
H           0.49442254583932    1.64012623393521    3.61152605733952
O           0.44898009427985   -1.36187868198272   -2.12699573638673
H           0.72165781728956   -1.34175339875639   -3.04572489594425
O          -2.79843669417452   -0.82426766259094    0.05789172811037
H          -2.75910447061901   -0.12319254130413    0.71897990820572
H          -2.05921204486074   -1.47122765455377    0.33362826729829
O           1.08098759518290    2.05665055005436   -1.08488741658628
H           0.98042792991457    2.91140798445871   -1.50713819916088
H           1.13895562085666    2.23218211515581   -0.12039132902213
O           2.36415078267612   -0.30984598507051   -0.77213114969624
H           2.03023956978374   -0.33184921145280    0.14880454517844
H           1.24200489907508   -1.03206456231679   -1.59226326908580
H           2.20844591057237    0.60657030270796   -1.05131619306844
O          -1.32257634985009    0.37022886133576   -1.52859054084679
H          -0.60976567665583   -0.32002836052715   -1.80744280684461
H          -2.07833980928307   -0.18164430379260   -0.98713994529108
H          -0.93707587561064    0.88198782365456   -0.74302909621765
N          -0.66579609553069   -2.18527273343096    0.65506810122947
H          -0.22594345535735   -2.49131517421040   -0.20553318417848
H          -0.66682937693302   -2.96668305794200    1.29747803094972
H          -0.06843595932210   -1.45648021559051    1.05419233675592
