    26
        -50.45064720  Gyration_radius:  2.41941313593 Dipole_moment: 1.253
 S           0.39265605709931    0.09092647164308   -2.00554208718817
O           0.69926255432004    1.25582772092768   -1.19194783281976
O           1.56616399380609   -0.60305984372222   -2.48720899701513
O          -0.57763139902640   -0.76999350940005   -1.34953201780467
O          -0.35049363808875    0.63318220418547   -3.30591483539655
H           0.37708278118886    0.77760148095333   -3.90232795970213
O           0.34422389297723    0.11482510188534    2.53990576786017
H           0.75879299207370   -0.28043201128593    3.30849290533652
O          -2.88256457565434   -0.32344226872983    0.30399652471544
H          -2.44222872710140    0.58547674913899    0.45013417624915
H          -2.73374952946635   -0.51144672080420   -0.63020031207871
O           1.83857558180831   -1.77841034843875   -0.17210089498259
H           2.08573900808540   -2.69758110139299   -0.28632347073660
H           1.78731324244873   -1.39390683726601   -1.07429638020065
O           2.23840521265146    0.68005578058018    0.89594478422968
H           1.76590819043396    1.05622875954255    0.12434911871503
H           1.09971327719466    0.41747912962949    1.93881853364910
H           2.42881762126381   -0.23270519175546    0.62641346766851
O          -0.86347032211350   -1.55138727156708    1.03583183746458
H          -0.36920457539805   -0.90595644702639    1.66942636684469
H          -1.83403474431021   -1.10922678420106    0.85530539465607
H          -0.47213039167457   -1.40526740521164    0.11235139889080
N          -1.42032295112837    1.80257364550970    0.61638680763812
H          -0.69893501432329    1.65551584161336   -0.09444271292300
H          -0.96246387223858    1.75015449224570    1.51936906074219
H          -1.77542469486150    2.74296839292609    0.50311134617728
