    26
        -50.45064749  Gyration_radius:  2.41987005054 Dipole_moment: 1.249
 S          -0.98209261090294    1.65410793506619   -0.69525821191974
O          -0.84263569288441    1.49284668543237    0.74265746549216
O          -0.18016461398095    2.72840977908093   -1.23680739724811
O          -0.81953033434602    0.38588057119278   -1.38672905140643
O          -2.49656179108472    2.07332913854934   -0.95586723685204
H          -2.44843006690080    3.02283064902886   -0.91018095725074
O           1.68474232555096   -1.45274379721549    1.27546258455189
H           2.59823597979272   -1.73066155579300    1.35979626749975
O           1.93106484986550    1.19282772265157   -1.19849624237551
H           1.17846800554699    1.82018147872346   -1.26464587645253
H           2.45468431402419    1.31800309276925   -1.99168942205996
O          -1.54463379238972   -2.33958597271221   -0.81718434469581
H          -1.59636890143585   -1.98680808927680    0.13915609035165
H          -1.92106475827345   -1.63102273972753   -1.35214585453074
O           0.78110601791144   -1.54655235689972   -1.10643977363214
H           0.41419591372943   -0.61859635007150   -1.28623471713987
H           1.17912290139753   -1.52537998470044   -0.15624222674591
H          -0.16442797207145   -2.06431217730702   -1.02296321748859
O           1.67544726211849    1.10887931576058    1.49831459417288
H           0.73107069139034    1.34369274527373    1.38334227429729
H           1.67728153305108   -0.45724679836057    1.45489043190709
H           2.06685729920807    1.29845373031686    0.63064181440442
N          -1.40304533425056   -1.18385655186140    1.50644965003773
H          -1.28735127281033   -0.20317646855157    1.23784216810332
H          -0.54225836427551   -1.47138441534245    1.95829366416678
H          -2.14371157805250   -1.22811556602167    2.19403751483554
