    26
        -50.45064719  Gyration_radius:  2.41907932656 Dipole_moment: 1.257
 S          -0.95691959764357   -0.28563009286154   -1.78492863162678
O          -1.44597958594715   -1.00673478515683   -0.62134454926058
O          -1.85024530617495    0.75831878588841   -2.23559855212529
O           0.41672297147837    0.15050027919110   -1.59618690872942
O          -0.89403261790081   -1.34196207425075   -2.97555369606150
H          -1.75912800073649   -1.25361528955903   -3.36252173855763
O           0.38707563335511    0.54006745943126    2.47853616490756
H           0.40052024697029    1.21796411076394    3.15610889604508
O           2.73102539780681   -0.96432111109462   -0.32210779584262
H           2.03456938734066   -1.52925101669560    0.16471789242038
H           2.40175875506707   -0.91032066742027   -1.22709716097318
O          -0.95899936537165    2.34904270922738   -0.36776522633475
H          -1.32473207848547    1.81766712309029   -1.10844016983590
H          -0.85419708368436    3.24078149981000   -0.70376475544189
O          -1.96267767599922    0.59304214181545    1.43621907891921
H          -0.56453556283340    0.50405732275869    2.13711269542719
H          -1.84832639324633    1.42210973458033    0.94458230879940
H          -1.92007415096883   -0.09659236573622    0.74140850587169
O           1.66063428588092    1.15918078484426    0.35896286665722
H           0.99439047252437    1.03500249180168   -0.39403343062499
H           1.15946719673002    0.94093608780623    1.23266513044423
H           2.28282309893985    0.29929836364511    0.14777017995438
N           0.71453778788805   -2.09558578096994    0.86521408611815
H           0.62460685774825   -3.09697966997540    0.97669643013960
H          -0.06376377064120   -1.77732322109248    0.28189968232471
H           0.59547910792354   -1.66965282987535    1.77744870741217
