    26
        -50.45064642  Gyration_radius:  2.41994608697 Dipole_moment: 1.248
 S          -1.78926236257224    0.95585988360455    0.26505828928316
O          -1.79842053257061    2.13685904640576    1.09925655884166
O          -1.09033243213486    1.13959503833320   -0.99606146104811
O          -1.34012007995804   -0.24738367713286    0.94613232917744
O          -3.31412506291415    0.67705018750173   -0.10157243422287
H          -3.68250983242866    1.55450990295399   -0.08969067739652
O           2.48434224022599   -0.38185487546603   -0.50889303863574
H           3.38851412428874   -0.24866451195368   -0.21982540767762
O           0.63392078658421    1.61247541758529    1.89030489410039
H           0.72606030945956    1.77580605997491    2.83046943271218
H          -0.28685488876886    1.86203514213095    1.65739979038960
O          -0.52550256597088   -2.87108883484272    0.08970477856598
H          -0.38356163246996   -2.39486417399069   -0.80128649639825
H          -1.33886491069008   -2.48715331023833    0.43749583097299
O           1.41970667112809    1.95219560276416   -0.68100637716810
H           2.10051001741381    0.54149376610273   -0.66232460405926
H           0.49776888306127    1.76139213082524   -0.95264164912725
H           1.34939423827400    2.11372591619822    0.27338592864271
O           0.93455749255475   -1.28334978202433    1.30261452425909
H           1.59062483600031   -0.92277372898626    0.59408698188602
H           0.15660761995515   -0.63347946368619    1.33333312218595
H           0.41660551070252   -2.11000601819154    0.83814411786233
N          -0.09145110890169   -1.33632237159364   -1.96316691302584
H           0.90499515556999   -1.16285362490350   -2.03224024563202
H          -0.52711841377188   -0.46261782315945   -1.65641205979273
H          -0.43548404216313   -1.54058590826163   -2.89226522464656
