    26
        -50.45234199  Gyration_radius:  2.54420069606 Dipole_moment: 2.492
 S           0.46223735950151    0.67256596611409   -1.37908848761410
O           1.60607933784339    0.07922392675132   -0.64841773713054
O          -0.51557764406045   -0.36000430415676   -1.68649665947992
O          -0.10546060777543    1.77918565611820   -0.63887255038477
O           1.03091904563985    1.23463727147852   -2.70678124910861
H           1.37839248532380    0.41161633305928   -3.14437980117722
O          -0.33874244559141   -1.99482609735079    1.88244201930389
H          -0.11531443518074   -2.81490343721573    1.44009000600744
O          -2.01952181217159    1.83930115582692    1.06496461648117
H          -1.31608417829781    1.84088260817816    0.35966675851678
H          -2.50804383949972    2.65529490804398    0.94559655262695
O          -0.15719716806426    1.50903207504316    2.94817877084417
H          -0.57560847408706    0.99832846583302    3.64500505308575
H          -0.86147377066056    1.71496498022135    2.29160376007375
O           1.41203874110177   -0.15710341968899    1.77704440698514
H           1.53309667498018    0.00931248779454    0.69649716299116
H           0.90043629193112    0.61628813425047    2.19453436293393
H           0.77193283947802   -0.95931470833683    1.85387250620042
O          -2.09982411085970   -0.86544762976141    0.36711227026937
H          -1.08610898789411   -1.58817829635354    1.34540175006285
H          -2.32207084817679    0.02427618810402    0.67682497498549
H          -1.59443309293387   -0.73031097524832   -0.46565608310175
N           1.64688214960547   -1.22894698298702   -3.28803854524145
H           0.74243090191853   -1.40828833620895   -2.86054579770399
H           2.35606011440846   -1.42767929692631   -2.59384688912844
H           1.77495550351769   -1.84990668258310   -4.07671116130064
