    26
        -50.46154480  Gyration_radius:  2.43329212552 Dipole_moment: 1.389
 S          -0.87253430480427    1.85891057518135   -0.60474026927462
O          -0.50820155106922    2.41676118449716    0.68065013509774
O           0.28016376214807    1.74429794808518   -1.49445089959390
O          -1.59758043985051    0.60550320644432   -0.50693022055658
O          -1.86712249915436    2.88550307160543   -1.27700997298749
H          -1.47195798729080    3.73082573684979   -1.08977347236295
O           1.77040033509616   -0.61156873082631    0.78607928795165
H           2.11252766180619    0.31222229770463    0.84225039186488
O          -1.04102884844104   -1.80236103417818   -1.53015675001359
H          -1.51886422642198   -0.99313068562193   -1.26718898176869
H          -0.94308964174323   -2.33834840273189   -0.69016816114153
O           2.12207739757985    2.01124455052180    0.63021034077993
H           1.18386251359614    2.25150469273998    0.77051458815115
H           2.28482462769024    2.20092726382529   -0.29766041761288
O          -0.66420198475455   -0.14676701740841    1.83957863368020
H          -0.56239279205028    0.68905800191008    2.30409289850812
H          -1.12841163125251    0.09568365558339    1.01076391028230
H           0.90792084711886   -0.57650235071948    1.25608564074105
O           1.14047627285380   -0.63100575402427   -1.64601769325946
H           0.23023111014116   -1.21774049281134   -1.69584813160513
H           0.82732575617765    0.33799419760722   -1.70892437295873
H           1.47884054530687   -0.71895308414594   -0.65165101096334
N          -0.59870091573019   -2.95942612535059    0.82771680079170
H          -0.81168747555594   -2.19698885917379    1.46310008718653
H           0.38368847746920   -3.18051328234442    0.93581907467752
H          -1.13656500862824   -3.76713056328370    1.11365857434390
