    26
        -50.45234214  Gyration_radius:  2.54432076825 Dipole_moment: 2.497
 S           1.19167169697233   -0.87907623737032   -0.61765868473920
O           1.77865040317795    0.18537892488535    0.18203303877924
O           0.28668269903831   -1.69737302177975    0.22237290305866
O           0.50177463201602   -0.38370126090610   -1.78971830522477
O           2.32128785452404   -1.82473777313145   -1.09903207099270
H           2.73978481501122   -2.09660474481655   -0.23857277840654
O          -1.58746849679396    1.13259477838893    1.95432878356682
H          -1.13185432667619    0.97982702037426    2.78331342524469
O          -2.96707881605084    0.51396610008740   -1.38898738098721
H          -3.51546297411743    1.16850254577554   -0.95047029773575
H          -2.19677846238699    1.00030313809914   -1.76310944889868
O          -0.77026081604903    1.80778482650195   -2.17568954513079
H          -0.22848670727959    0.97988457089512   -2.05974771474244
H          -0.62279927913224    2.08937721828853   -3.07998292243400
O           0.15900358947148    2.25968218340250    0.42081085854865
H          -0.17212443630274    2.36581756037345   -0.48252264933968
H          -0.94367790551305    1.64901748492665    1.37877743544724
H           0.85139286718297    1.56376267763754    0.36227603750934
O          -2.01217834042826   -0.92002431487231    0.51917177881433
H          -1.88200094124057   -0.13541401749025    1.17241827611211
H          -2.37903519001765   -0.48869766514855   -0.32559982980063
H          -1.00055634080127   -1.31068090267315    0.33502045229950
N           2.95293913541739   -2.07213141926689    1.41628561616029
H           2.74164867239085   -1.07801745202394    1.42283808391873
H           3.74278818833351   -2.25190489056673    2.02277143019668
H           2.14213846925236   -2.55753532959362    1.77867350877858
