    26
        -50.46154481  Gyration_radius:  2.43323795633 Dipole_moment: 1.396
 S           0.77582968981560   -1.76159988057808   -0.93641077528039
O           1.86331491923315   -1.37087926364848   -0.04313307584634
O          -0.23419469172896   -2.53854594962024   -0.24905327860745
O           0.23866554262483   -0.62003037003723   -1.65386414766175
O           1.40441970411856   -2.70854722560693   -2.03339676647359
H           1.50174231942629   -3.53880500209461   -1.57845211798565
O          -0.46407200689093    0.58315285366153    1.88993704951046
H          -0.23465959430458   -0.30061256894622    2.26387548776358
O           0.81092650384919    1.98390009462760   -1.44137731850919
H          -0.07931964002315    2.34272870440422   -1.15616107772453
H           0.62727741232345    1.10086149794328   -1.81410636426246
O           0.34126427641596   -1.91335983746835    2.27344027815138
H           0.04081955103767   -2.25481693683816    1.40695536268489
H           1.29972556774106   -1.89391780242175    2.20732083277329
O           1.68811980785296    1.04840771020199    0.67956961666447
H           1.88674933116559    0.09027961506519    0.39079550270349
H           1.39325859165555    1.55466877024781   -0.23322167748685
H           0.80646004261171    0.95863278443679    1.24970675080861
O          -1.93007735046626   -0.28922031506189   -0.19435846656909
H          -2.16326298174703   -1.19093893824920    0.04489355523729
H          -1.10343732741724    0.38063937204373    1.17151914838661
H          -1.20057218715851   -0.39472526168575   -0.84083532037483
N          -1.57240782509842    2.66610576519763   -0.46829433584614
H          -1.49368349080838    2.94194926522552    0.50298326843088
H          -2.05692938415322    1.77448882345210   -0.49403631385388
H          -2.14595680007731    3.35018410566767   -0.94429581667711
