    26
        -50.46154481  Gyration_radius:  2.43330122376 Dipole_moment: 1.391
 S           1.41176888868520    1.58758928705578    0.26208690095371
O           1.37711823380294    1.42940144093273   -1.18946442813353
O           0.33487588662110    2.42969897851325    0.73890185360633
O           1.48495561740562    0.30474391117351    0.93684326325489
O           2.75825437871860    2.33814887109848    0.60690560648319
H           2.57044489661330    3.24344408073359    0.38118885406926
O          -1.80408137443951   -0.23473731287538   -0.90318837389043
H          -1.84121129984647    0.71447866515546   -1.16992142273661
O          -1.29581381320147    2.32628034024942   -1.36218469632544
H          -0.78604681881006    2.48082644700630   -0.54124959681309
H          -0.63838203878067    2.34333982359031   -2.06278212580390
O           1.38565481086640   -2.17926915962896   -0.04980118190578
H           1.65531822143016   -1.39374875915217    0.46268246379410
H           0.56016306193897   -2.52133917288821    0.40202032213056
O           0.43440956751859   -0.81344554058921   -1.88654355226083
H           0.89196501321589    0.08093027645723   -1.70827824878473
H           0.88429554274193   -1.49850166482570   -1.17663726836068
H          -0.55106130131943   -0.66095841508528   -1.54551076306872
O          -1.04631246338686    0.14984302185692    1.65239072636325
H          -1.63938232003790   -0.20502029342770    0.06533844309286
H          -0.07687031157234    0.16651219350842    1.50711754781830
H          -1.27271525407394    1.06783774022842    1.82781706204283
N          -0.95202177014656   -2.78237377952602    1.07486156251643
H          -1.03324137616872   -3.57250455457893    1.70147445778865
H          -1.67456508087619   -2.86366519218266    0.36984366461268
H          -1.13751888683524   -1.93751122276782    1.60608893949190
