    26
        -50.46154479  Gyration_radius:  2.43319021485 Dipole_moment: 1.396
 S           1.18472590817561    1.38578272069108    1.12106701555234
O           1.44670478174552    2.11101566793809   -0.10440501049585
O          -0.16242959947849    1.63849150461956    1.62559707939100
O           1.45912585939567   -0.03595525731970    1.02188103550975
O           2.18970852012231    1.94864408615986    2.20205308198029
H           2.17060347338928    2.88839443673445    2.05277558999108
O          -1.52693661825170    0.10810856555739   -1.33565272270381
H          -1.51718261275634    1.09474574156987   -1.33064626362166
O          -1.04638149055116    2.66968583423742   -0.85098179207531
H          -1.42457751964423    2.84984050849148    0.01382745413624
H          -0.08750638526252    2.56685359112702   -0.68474507328088
O          -0.13733345079432   -2.14089926550317    1.43927871884164
H          -0.13044113622954   -2.55680393694366    0.52846478137853
H           0.63284860971878   -1.54183284806457    1.45651249488281
O           1.12866757849280   -0.26648111180721   -1.58208137258191
H          -0.59715867082078   -0.13961089105626   -1.53601389511812
H           1.45392019562093    0.57635979685347   -1.91160288318682
H           1.35801965199634   -0.25481097345288   -0.62893286588532
O          -1.74317328777781   -0.27705891472904    1.13772298943862
H          -1.13548005796755   -1.15218388923565    1.34020130724001
H          -1.17185607125847    0.51062163877351    1.44429711207137
H          -1.75771268967879   -0.18019767441264    0.08838607273941
N          -0.15509702469316   -2.92422988100762   -1.10608637006954
H           0.48153664773550   -2.25217687675008   -1.52247614864180
H          -1.06829045917884   -2.77368617681217   -1.51730702581294
H           0.15569584793827   -3.85261640570066   -1.36113330968045
