    26
        -50.45591202  Gyration_radius:  2.49149796259 Dipole_moment: 3.171
 S          -0.51558011065986    0.91962049062416   -0.62755295757218
O          -1.79636317374895    0.73101142317553   -1.26157240814153
O          -0.52257099448294    0.35122504729117    0.74033925550350
O           0.61269670376970    0.38659809891276   -1.37835902981065
O          -0.23302358756734    2.43934926886741   -0.46529868209402
H          -1.06879991062355    2.78232192170677   -0.03441649988767
O           1.68693306397436   -2.67900518823371    0.96167263543164
H           2.50951350141544   -3.12990423307299    0.76636496236154
O          -2.04420195607002   -1.79652859089025   -0.37877479375311
H          -1.82148938623683   -1.55684052944605    0.52562475531258
H          -2.13000483733364   -0.94462014676351   -0.84341229309344
O           2.95232390913024    0.77154454249552   -0.34149166155650
H           3.57548442989005    0.27666099130749   -0.87729596148679
H           2.09852588195296    0.77611036187847   -0.84336907505567
O           1.68881986455240   -0.24504432220041    1.63671675953418
H           1.71742290900915   -1.26609112740175    1.45333925087530
H           2.31058420913622    0.18941901802443    0.95821079932652
H           0.69881894485069    0.05111756378800    1.30941324408574
O           0.44270275723825   -2.30580303777794   -1.26214907135363
H          -0.51210686936763   -2.37292104753135   -1.04972428729260
H           0.57164183559670   -1.36250039480773   -1.47090633152340
H           1.17911428732173   -2.61459672378856    0.09126365313073
N          -2.60887279637503    2.74518313441150    0.54962197364623
H          -2.66288989648782    2.37288403224403    1.48864549904944
H          -2.83465210087811    1.99726468592441   -0.10125407694446
H          -3.29402666798364    3.48354475127771    0.45436432130908
