    26
        -50.46272429  Gyration_radius:  2.48120878444 Dipole_moment: 6.116
 S           0.26335208592381    2.30027122286840   -0.32934764881950
O           1.52811762755143    2.42253194541703   -1.00765627035720
O          -0.67596286169916    1.40178915116847   -1.02890174010545
O           0.33161361790199    1.95718016720730    1.06968840586079
O          -0.40809636811517    3.74338886235490   -0.42152565152962
H           0.11337812705108    4.13994584702103   -1.11160862368787
O           1.25881427698825   -1.66930083758431    1.10816215030031
H           2.02090489987681   -2.17684398778387    1.39048821197969
O           0.11593587204255   -0.79026742133664   -2.42905572451432
H          -0.22416797238621    0.06733585645005   -2.11903863383246
H          -0.31825042066900   -1.46025966024161   -1.88476565764920
O          -0.83001100327372   -2.52284509119041   -0.33410293584886
H          -0.84839463307267   -3.47800577104959   -0.40018212055503
H          -0.03609276888870   -2.28622423980297    0.20083435618206
O           2.15182355574074   -0.15427107288432   -0.76810439611107
H           2.06675964564007    0.81753355969145   -0.78191428437414
H           1.61576503653161   -1.00804543929050    0.43493770059571
H           1.61701697689698   -0.45779598850429   -1.53102260173027
O          -0.36811656118826   -0.05072882328331    2.60519919520148
H          -1.42275114342972   -0.14476963752473    1.49119102657801
H           0.29192459634819   -0.69330773463496    2.28746278506714
H          -0.03455936727594    0.81091464150188    2.27807824221324
N          -1.96112693592520   -0.18980654979058    0.55462621238351
H          -2.94356416157141    0.03249672967734    0.66516142294103
H          -1.82401536317704   -1.13036828734654    0.15597294385007
H          -1.48029677782185    0.51945254888987   -0.09457636403713
