    26
        -50.46154480  Gyration_radius:  2.43324229816 Dipole_moment: 1.394
 S           1.82887651267273    0.01114220687683    1.11231251254836
O           2.18960519161365    0.74098990985985   -0.10025439446746
O           1.19622067429561    0.87024325425293    2.09104576349703
O           1.06117119653100   -1.18235373387731    0.80802118577189
O           3.17860330442100   -0.49292173145140    1.75989526302771
H           3.52757093408144    0.28757362055110    2.17801859472566
O          -1.29966304924105    1.38783862511323   -0.71508189976168
H          -0.79190751468355    2.13196055626137   -0.31257361959750
O           0.48499471579705    2.90377300585594    0.52783276089898
H           1.25556255669850    2.92783884012394   -0.04577972228614
H           0.71299140046552    2.25108922298563    1.22042679309763
O           0.11091311022781   -2.08219434157173   -1.52462161558743
H           0.54221404990003   -2.04483648018773   -0.64998919847385
H          -0.87256725139854   -2.06958960555139   -1.33709897763976
O           0.57138244109173    0.30697714778770   -1.99723807906821
H           0.38567238952686   -0.75869212014202   -1.92038824688688
H          -0.27162204119739    0.77189276302808   -1.56858427373968
H           1.31537967639149    0.48882656764217   -1.32318596752367
O          -1.31369249883585   -0.23024945343406    1.43787964954241
H          -1.11715014404801    0.35748769599583    2.17318837601533
H          -1.46066802243085    0.77413687479127    0.03554994294510
H          -0.46574729206508   -0.69222886544665    1.26823380749156
N          -2.45017142421524   -1.73877417322697   -0.87958563088713
H          -2.85457080398219   -0.98436505876354   -1.42092925954859
H          -2.36919380917539   -1.41669824966673    0.07963365344041
H          -3.09420429253355   -2.51886649778204   -0.89672739756186
