    26
        -50.46272431  Gyration_radius:  2.48121007658 Dipole_moment: 6.116
 S           0.79887677002343    2.05009178718735   -0.79256942700087
O           2.11415085446995    1.75030072897655   -1.29745424679353
O          -0.25158492047335    1.20849659571704   -1.39847144496558
O           0.66414225996353    2.05743135408408    0.64320742852686
O           0.47822214112796    3.52810789483259   -1.29702336276744
H           1.13509443126066    3.63152564737433   -1.97761442225659
O           0.75032296215657   -1.55690660948372    1.61576963500585
H           1.35119324458418   -2.11847162066513    2.10738837786189
O          -1.33987120952279   -2.31392763216033    0.12282172931979
H          -1.56530721667154   -3.23310665178086    0.26888500023744
H          -0.56388938569483   -2.11269153067081    0.69718851303341
O           0.15117567616964   -1.37257489588738   -2.15217751281789
H          -0.01468535097260   -0.41548248812835   -2.09092205273035
H          -0.46831404314673   -1.78891099095249   -1.53852933290764
O           2.12232966472341   -0.75834408110840   -0.40715733871935
H           2.25812477033275    0.17724699848305   -0.64818149809648
H           1.30452345799013   -1.16593467139455    0.86875192483430
H           1.60294572042359   -1.12985104500187   -1.15041564848559
O          -0.59943493799063    0.66774344952588    2.47382390162749
H          -1.54560175408889    0.50979510797228    1.27321062266429
H          -0.07416653125157   -0.14984617035248    2.40193194340625
H          -0.05425798151655    1.33939939070675    2.01298184791576
N          -1.99529213248056    0.34115731699390    0.30443717181131
H          -1.31262191491926    0.75967295453962   -0.41275898650824
H          -2.90906899134665    0.77186164780409    0.22482228042740
H          -2.03700558314988   -0.67678246661102    0.14805489737775
