    26
        -50.45606793  Gyration_radius:  2.57889830069 Dipole_moment: 2.246
 S          -0.40983757691639    0.32885675326636   -0.74080322606940
O          -0.66012117893869   -0.20760164204645   -2.05024206374172
O          -0.57208957836571    1.81694653036247   -0.73632539161057
O          -1.19739344377098   -0.28087376113098    0.30973938381162
O           1.08999272731227    0.12694278676815   -0.39432219957540
O          -0.95132838025171   -2.73388428489507   -0.69263951339649
H          -1.15939234054039   -1.91134414199293   -0.21014683528066
H          -1.29547566487705   -2.60111980313441   -1.58007329412535
O           1.95328040056871    1.41174116310917    1.84196380546038
H           2.80265021604445    1.81010106948517    1.64345889637094
H           1.72779825818490    0.84446678248083    1.08256977107210
O           1.12152071552081   -1.52824805475520   -3.53057918933111
H           1.59698512531095   -0.90726757044725   -4.08412823881200
H           0.38728175176290   -1.02655176199848   -3.12185864627728
O           1.62117540685542   -2.21458414369632   -1.00176212727792
H           0.74657726476302   -2.63178673449685   -0.80320284765854
H           1.64665823180780   -2.14158645879284   -1.98128240782961
H           1.37183962019264   -0.88046426381718   -0.62036621120978
O          -0.34936041202890    2.70622935152586    1.53197853420142
H           0.53442031315171    2.35620489095858    1.79256343043404
H          -0.49050655435991    2.26649434443476    0.30672434365020
H          -1.02303516450947    2.16377469748403    2.06198555249502
N          -1.98419490552489    1.03637355289465    2.70304920993955
H          -1.67676968240313    0.58119404877610    3.55281214512567
H          -1.85840154223858    0.38152950392475    1.93083969984221
H          -2.97227362674741    1.23445715572765    2.79004742978729
