    26
        -50.46154481  Gyration_radius:  2.43327765359 Dipole_moment: 1.389
 S          -1.50850174709852   -1.00983766241294   -1.13447790834169
O          -0.41743421795732   -0.88325581225152   -2.09724377231711
O          -1.34052442963313   -2.16502153112634   -0.27801926374709
O          -1.72140669485984    0.22599810697209   -0.40397403019242
O          -2.82695912991115   -1.25449834650173   -1.96938057654087
H          -2.76349539194450   -2.17081411993086   -2.21865290672583
O           1.89117729861367   -0.40032282338155    0.62467583568939
H           1.87236289941603   -1.30728737707524    0.23656264886573
O           1.25311062255745   -2.63799172305068   -0.64531013958817
H           0.29615195974110   -2.60400547563258   -0.44362156022156
H           1.31080761434140   -2.43474543281487   -1.58273086931505
O          -0.34737696300721    2.52058897398057   -0.44524324373176
H          -0.03819965589329    2.56415826036613    0.50608195312867
H          -1.08158661626893    1.87775340500642   -0.45014220083266
O           1.24966775963785    0.89921189903863   -1.42761524542324
H           1.62228302474786    0.42252751522954   -0.56456678263018
H           0.60153883668213    0.21549866755354   -1.81945981677803
H           0.61670786557944    1.70150950278014   -1.06574746628102
O          -0.51639705972110   -0.48544532570419    1.82871451959461
H           1.08832040496440   -0.36505591660619    1.19047677149869
H          -1.05860039687097   -0.17195315115641    1.07442908407585
H          -0.71602305215702   -1.42434964841082    1.88648522056377
N           0.54871071065542    2.29898824095453    2.05305883327586
H           0.08778732162732    1.44528847173589    2.35152731971832
H           0.35161511898352    3.01881919755262    2.73604276899415
H           1.54626390761209    2.12424208439440    2.05813083726743
