    26
        -50.45591210  Gyration_radius:  2.49166613112 Dipole_moment: 3.165
 S          -0.31111162379537   -1.12667697309180    0.37092279821467
O           0.38686918480179    0.07284663589285    0.88895535035194
O          -1.54985220969928   -1.33723956951632    1.07744656575929
O          -0.45111161454839   -1.03072511996698   -1.07544243458362
O           0.64323371188986   -2.32730857858170    0.62269361473735
H           0.63518505766769   -2.42065370673439    1.61923013261972
O           0.40334098302077    2.83709135271364   -1.65480071399861
H           0.52001207515182    3.14407212754683   -2.55493966444213
O          -2.20643116132915    1.26974775256295    1.03333251361913
H          -2.19604737919278    0.29851980523084    1.10779812076514
H          -1.34201888129981    1.54555331137176    1.35221083294914
O           1.74466701593793   -0.74415834183527   -2.41473280413003
H           1.49184277929609   -0.58334601645188   -3.32608000622287
H           0.92222007120672   -1.03692970658162   -1.94705202656149
O          -1.67542032975828    1.31781227235414   -1.60101096191286
H          -2.08612855626648    1.45681607183425   -0.72164428624595
H          -0.45862792965222    2.31127599952379   -1.63839413502267
H          -1.32557941158838    0.40914878681378   -1.55628296857470
O           1.97212806672660    1.11721933968854   -0.67477865264676
H           1.40008589018899    1.89190716511033   -1.06177123810891
H           1.32733767734966    0.66335450867908    0.06912787388176
H           2.03720038022940    0.41151070255425   -1.40509204622614
N           0.17269440678894   -2.13355426120770    3.17401126315486
H           0.63232736232487   -1.32806828447732    3.57800960689239
H           0.05754757394072   -2.83521920364244    3.89383562549345
H          -0.74436314941655   -1.84299605966475    2.84444765023335
