    26
        -50.45591209  Gyration_radius:  2.49160815627 Dipole_moment: 3.167
 S          -0.04447357524299   -1.20799164786499   -0.20762365652915
O          -0.72886484200057   -0.18452288364524    0.61609499292166
O          -0.93891560386559   -1.73537896238069   -1.20751191931786
O           1.19877421232446   -0.66526873001803   -0.73735173619528
O           0.37369543306383   -2.34293460942694    0.76844188972477
H          -0.50116510942618   -2.75094575215609    1.03296082942327
O           0.66675975059614    3.24069302392628   -0.04055453835683
H           1.41181619576089    3.82862689302589   -0.17215031256424
O           2.89131217030281    0.21605107268284    1.01075076328742
H           3.59886925225944    0.63872210185167    0.51980818987439
H           2.34945221652486   -0.27799884161767    0.34504192143244
O          -1.93346411254869    0.68437663597135   -1.82819460670418
H          -1.67676401285178   -0.25506515640535   -1.80637293980179
H          -2.08798069771876    0.91379899649899   -0.90705991542954
O           0.75697606471954    1.43368441192938    1.72183498044644
H           0.70219601426558    2.24132932864492    1.07235422681088
H           0.06436552780099    0.71350919360376    1.30129676509526
H           1.66978432622503    1.00724562549590    1.57847007830411
O           0.57803308634010    1.61791617263437   -2.03829581457255
H           0.60090565437124    2.66795830651415   -0.86963007103404
H           0.92963691639181    0.77516194376621   -1.69745632602764
H          -0.37266946593565    1.43319284685906   -2.19126930481046
N          -2.12701423627824   -3.01583801583877    1.01645125354647
H          -2.57869463249252   -3.91753074670274    1.09789108825213
H          -2.16377814198303   -2.71281501091064    0.04649135513412
H          -2.63879237061520   -2.34597622642290    1.57558280707870
