    26
        -50.45591208  Gyration_radius:  2.49163838183 Dipole_moment: 3.166
 S          -0.81512061852991   -0.20749433265772   -0.89220669894709
O          -2.00693084528828   -0.97032813712594   -0.61712890646158
O          -0.56111865791539    0.77094088190708    0.19063497640452
O           0.37666732046483   -1.01292862272619   -1.11981814968375
O          -1.01598929086973    0.62320715678365   -2.19033800785561
H          -1.89054640544388    1.08425420605385   -2.03377885734309
O           2.49871157074367   -0.15436561953109    2.16363583120052
H           3.40821642528052   -0.45304900741050    2.20460611117631
O          -1.39294117526855   -1.29939054535245    1.97988645596049
H          -1.77029067557919   -1.35323141979495    1.08344424947918
H          -1.20340154251328   -0.36502301512431    2.10635616827860
O           2.53401788901541    0.28881274932000   -1.71013877409228
H           3.24800401024341   -0.35185320355119   -1.71973906352975
H           1.69369821948373   -0.23391298400323   -1.67139901801994
O           1.77506637473578    1.50909988458765    0.40616862374836
H           0.72435501341819    1.25756912028785    0.31746817835400
H           2.11245752094978    0.90321437713728    1.17831682127387
H           2.18672894379710    1.14451177165018   -0.45011579555424
O           1.06990637476782   -2.09472420814628    1.25499513763803
H           0.88269872210658   -1.86029833106083    0.32760282347722
H           1.94542098233546   -0.95124995421616    1.88317650313697
H           0.19929633689891   -2.01691344776610    1.69914870858957
N          -3.30387366408194    1.45533039539884   -1.27341415914459
H          -3.32094445021193    0.52724621402542   -0.85821021273870
H          -4.19047161519894    1.62947986282176   -1.72882902493202
H          -3.18361678333278    2.13109620852495   -0.53032396042368
