    26
        -50.45591211  Gyration_radius:  2.49165832058 Dipole_moment: 3.167
 S           0.68687861183963   -1.01565117850737    0.04132580737786
O           0.64031642935708    0.33390301871600    0.65029723202437
O           0.41766849227431   -2.02824293244223    1.03136967606189
O          -0.18766313536595   -1.06307047044657   -1.12217345860008
O           2.12949299056669   -1.19478614094972   -0.50856721056166
H           2.68486290235075   -1.25487298659621    0.32196044411545
O          -2.32417924489176    2.28108946104279   -0.58727341438282
H          -2.89606906746790    2.57105843699206   -1.29927072876804
O           0.29718307536741    0.66990743734259   -2.98193558976059
H           0.21167991397996   -0.11133453999974   -2.37923593197047
H          -0.41600010219944    0.59592346299617   -3.61929405026967
O          -1.59816455341384   -0.63780158367290    2.14176769491625
H          -1.07885320892453    0.16988056661596    2.19606985740447
H          -0.96065889230320   -1.31993216047063    1.86390712794975
O           0.17793465620613    2.17313471286344   -0.91571006727986
H          -0.83937458870229    2.31719858614313   -0.77017894318622
H           0.43828538367662    1.40564706973544   -0.19579169627575
H           0.27958329551208    1.70866982890983   -1.81553172276898
O          -2.63441866509313   -0.26048095185935   -0.30932484999444
H          -2.52561076904741   -0.44056339014095    0.64831259253993
H          -2.51945099075237    1.30132363063439   -0.44073074552127
H          -1.84333464576828   -0.65975892282250   -0.71523065549804
N           3.01230424239573   -1.35719310446098    1.93323681489190
H           3.73468559728967   -1.92776675823212    2.35305155935436
H           2.10963010602110   -1.79987006607914    2.08556630600437
H           3.00327215717234   -0.45641103527455    2.39338395217931
