    26
        -50.45591204  Gyration_radius:  2.4916068934 Dipole_moment: 3.167
 S          -0.47218065739596   -0.67443735733423   -0.90918318625153
O          -1.47176791996597   -0.11020519381055   -1.78118262083031
O           0.62745440697023    0.29196092163463   -0.68294668498316
O          -0.98524060827082   -1.14715073532954    0.36913976280602
O           0.17222154697955   -1.91485010864739   -1.58877401020148
H           0.42259231592001   -1.57432008994557   -2.49598872123087
O           0.63350655915462    1.53344470657959    2.86261902142386
H           0.56587830758056    1.37272085748318    3.80479180360731
O           0.73976200976068   -2.25557828102692    1.94812503257157
H           0.29007173242036   -2.41192860996511    2.78097185946347
H           0.03637354264470   -2.00922764866914    1.29587912395707
O          -1.42121970739332    2.28400157485769   -0.55845885055867
H          -1.63999985087756    1.50048468632657   -1.09432074852167
H          -0.46135665099332    2.33649443195258   -0.58835054254001
O           1.91899771605079   -0.05749636429988    1.38073202191982
H           1.47967560960198    0.63335615626846    2.01858666648060
H           1.59189887136648   -0.97458674605946    1.67647126227506
H           1.41659669207195    0.10535773565544    0.43404237025805
O          -1.66277706262188    1.03446201454539    1.80881527339997
H          -0.29356263470390    1.41100738862214    2.48146812999354
H          -1.75819722168984    1.66482186635055    1.06391746967175
H          -1.56000529389202    0.16879286366538    1.37287307002403
N           0.50857825377957   -0.51866183488231   -3.75819062307515
H          -0.35780555101247   -0.08446980418036   -3.45014209891161
H           0.42624938926841   -0.76091066999350   -4.73713215636760
H           1.25425619524265    0.15691824020838   -3.65376260439445
