    26
        -50.46272432  Gyration_radius:  2.48126211765 Dipole_moment: 6.115
 S           0.13248787584174   -2.12383478057704   -0.97021503020137
O           1.25007383638576   -1.20204996967021   -0.68702385386343
O          -0.13214540556575   -3.03034993017905    0.11742505961835
O          -1.00504027430882   -1.38919469243132   -1.46621257316994
O           0.65260831755915   -3.03915207106109   -2.16748480129755
H           0.86797167990451   -3.83964629638858   -1.70037301025966
O          -1.68255493127717    1.18580049564968    1.16661813409534
H          -2.38976865047365    1.35635324372959    1.79019773759684
O           1.80338648084527   -0.24296313903649    1.79616352463340
H           1.64022905886214    0.69245958306503    1.61718239152705
H           1.79089502281312   -0.68681058212548    0.93006816482211
O           0.73553895148717    2.33364445212263    1.08524548493389
H          -0.17496354161060    1.96511393784494    1.17284244030281
H           0.78155630892517    3.10374227879543    1.65258108714668
O          -1.79725409908483    1.10896480571613   -1.56988438438869
H          -1.97579972392978    1.22836616183455   -0.61941114112325
H          -0.27017815089542    1.27865618452573   -1.60065718512748
H          -1.73631679862734    0.13667473850995   -1.67790311363254
O          -0.75572137886886   -1.11208400035433    1.85442569501851
H          -1.37073686754722    0.24798083081578    1.36981370521069
H          -0.67426164374717   -1.87706700004002    1.25438690649966
H           0.16834823618727   -0.88453286354109    2.08791529250569
N           0.79589472835329    1.23542329410080   -1.42527212418524
H           1.33045502610529    1.53548939355663   -2.23213721678052
H           1.01215694253564    0.21037019368280   -1.18417996902651
H           1.00313899013041    1.80864573145597   -0.59411120085394
