    26
        -50.45942960  Gyration_radius:  2.42429996977 Dipole_moment: 1.897
 S           0.47675321958736   -0.64458466454823   -1.70671804614099
O           1.24326780872147    0.35633594235158   -2.44100635568252
O           1.20927427885516   -1.11514274173250   -0.53953939075708
O          -0.86195179656790   -0.20914952205722   -1.37863946749780
O           0.32271938997684   -1.87569957359602   -2.68095662134295
H           1.20774761590000   -1.96065441245768   -3.01894038110304
O           0.03741270342427    0.94012370375189    2.29042022119466
H          -0.17655001537856    1.08909643383790    3.21157682962169
O           2.35656804188000    0.80758554808645    0.89083100595341
H           2.11231939643138   -0.01624979505768    0.41543896206480
H           1.66853641927840    0.91098379412070    1.57867199358610
O           1.52118190107903    2.32102609738837   -0.91243520369008
H           2.01285845632650    1.80198797191644   -0.13082734583431
H           1.46755112934960    1.61120799288144   -1.65839617263696
O          -0.31311058191759   -1.53100474801309    1.66869677552574
H           0.27111629752778   -1.55035990972459    0.88965390640643
H          -0.13906291054905   -0.03851841943931    2.11062876218309
H          -1.22089578488001   -1.66356407840892    1.31002818669247
O          -0.80084057887845    2.06200826259385   -0.02163555808243
H           0.52420269637990    2.38897108244245   -0.56269790361046
H          -1.00724202712347    1.25632062485105   -0.54361599197994
H          -0.63196351052336    1.75015438430844    0.89162076210639
N          -2.65769488147121   -1.70112857625680    0.30536191352916
H          -2.18771358619315   -1.19271790601176   -0.44247031301697
H          -3.50227720433952   -1.19427109282027    0.53856428762008
H          -2.93220647683338   -2.60275636827749   -0.06361486529763
