    26
        -50.45469722  Gyration_radius:  2.51012075004 Dipole_moment: 5.579
 S           0.15471072724571   -0.30969396216794    2.18440415058343
O          -0.79169155198864    0.41252882232229    1.35121058440589
O           1.34178947716980   -0.74847278585708    1.29733596365230
O           0.66900145867530    0.40914150159501    3.29572680610094
O          -0.49311485372762   -1.62400771579267    2.62903633562052
H          -0.82523330076584   -2.12207533288279    1.76716692349111
O           1.68104307735528    1.67142375940299   -1.35244615152738
H           2.53012435414756    2.05754774262015   -1.57187487250263
O          -1.74211152612117   -0.24502431630523   -1.04390549286374
H          -1.68649914654156    0.54174626418904   -1.61638418625178
H          -1.59198037656455    0.09289000342527   -0.13962878927899
O          -0.85166784972748    1.89335437006186   -2.49310101389345
H          -0.73583753093146    1.95877271918024   -3.44178606848459
H           0.03574955677752    1.93040692691035   -2.09705233787276
O           0.81081745746820   -0.92170310318394   -1.16842611250147
H          -0.16346880218596   -0.74091451613916   -1.22559781301743
H           1.23723569953908   -0.08138306237904   -1.41498941364991
H           1.11418824824529   -0.87217516326893    0.30061646312393
O           1.08915000494690    2.29581518915360    1.16629620308491
H           0.21790721192671    1.86694246935754    1.20392722618942
H           1.52363113826421    2.01048397065835    1.97608936933883
H           1.50305130406687    1.92042186956779   -0.41296243982088
N          -1.19710709337738   -2.75082570595759    0.43901111706524
H          -1.71876255120960   -2.07477347541051   -0.11113164085768
H          -1.75722719617586   -3.58577119102235    0.54931752703077
H          -0.35369793674906   -2.98465527819669   -0.07085234707067
