    26
        -50.44980410  Gyration_radius:  2.65049797122 Dipole_moment: 2.062
 S          -1.52353704374540   -0.55036450878363    0.18674702720326
O          -1.50548595282212   -0.86774978749962   -1.22107854578431
O          -0.53400126083687   -1.46224239136014    0.92708709587102
O          -1.26052057432126    0.82338534063523    0.49278627671729
O          -2.86886057894402   -0.97069313373607    0.79509213253289
H          -2.99137656107757   -1.92423529093430    0.44856982896461
O           2.50225063250320    1.37845888265129    1.33325764667572
H           3.03048486033232    1.38894738029683    2.13205210355075
O           1.72239253837118    2.67162563809002   -1.06591042143249
H           2.18757378748622    2.23480262402627   -0.33625006994632
H           2.38113881689547    2.86926349776268   -1.73383101122071
O           0.85298791865162    0.19920705637626   -2.02553242298370
H           0.86853824649501    1.13512249795671   -1.76402992466376
H          -0.06067985097365   -0.11393468553393   -1.91632027266140
O           1.77335794671810   -0.94670308570430    0.14462369825546
H           2.09040530442079   -0.16553676645595    0.64409932956437
H           0.46831650257993   -1.28510462722086    0.63186991941161
H           1.56308823871229   -0.60502310364252   -0.76518188548825
O           0.26894269757373    2.71749037625497    1.57085955122901
H           0.35400263609751    3.27682129964980    0.79202005037385
H          -0.38795740227415    2.04337151188284    1.31543986577880
H           1.65106098483520    1.85196487825857    1.54865867152640
N          -2.74563798245031   -3.25518584304970   -0.36622683829566
H          -2.24962451588035   -2.76600187779505   -1.10657333895528
H          -3.49173989708516   -3.80792521478938   -0.76718840516927
H          -2.09511950132651   -3.86976066734189    0.10495993892824
