    26
        -50.44980690  Gyration_radius:  2.65204501977 Dipole_moment: 2.061
 S          -0.07106076456358   -0.36057764960638    1.60197414537654
O          -1.29927152707287   -0.93214247459301    0.87798771510856
O           1.06944133495739   -1.20869043576694    1.34987486934364
O           0.11838629675277    1.01519016484387    1.25369222232045
O          -0.48358038577686   -0.47184965458762    3.07637695485040
H          -0.51052918628619   -1.48147732743055    3.23167748019241
O          -1.18419409344957    1.72295281439141   -2.35502780364216
H          -2.00522814337525    2.04679307771545   -2.72689625462683
O           1.63635084069655    1.92256482853878   -2.19943981597948
H           2.16195841670789    1.81936528271529   -2.99446541981860
H           0.70919860183604    1.81584598129612   -2.46198822838356
O           1.69442550747723   -0.69394085378467   -1.23454224506257
H           1.83500104957797    0.26335154406647   -1.32733117474296
H           1.67014224141588   -0.88838169555179   -0.28214709676613
O          -0.37492371594961    3.12134201710839   -0.29988268780401
H          -0.28918872273894    2.43189153299200    0.38453011224188
H           0.52830204570770    3.28919982110920   -0.58751655695905
H          -1.00210252706771    2.27455225500599   -1.54391992414223
O          -0.89831968226730   -0.86055051973534   -1.57939347665429
H           0.09416338228277   -0.92278575685390   -1.58694759457920
H          -1.18243439385355   -0.92417558035428   -0.17476211905540
H          -1.09959435693406    0.04643061813697   -1.89044442300771
N          -0.34262196635289   -3.03176532015849    2.97868081801693
H          -0.03507350883799   -3.68210109314939    3.68963023216407
H           0.40315487801287   -2.88962042463942    2.30266459993568
H          -1.14240163093786   -3.42142114166305    2.49761567169565
