    26
        -50.45469727  Gyration_radius:  2.51005578704 Dipole_moment: 5.576
 S          -0.59363256550821   -1.64908791024267    1.34876926816504
O          -1.34784577634036   -0.63262001817533    0.63511196147716
O           0.90926830146294   -1.30993302074072    1.22607369465325
O          -0.90790766750853   -1.79443014789704    2.72586242838119
O          -0.74477927608645   -2.97875837857830    0.60472953244690
H          -0.47290527790738   -2.81573383935931   -0.39568243819879
O           1.20212159029558    2.26983237061201    0.92356456873924
H           1.82044979029192    2.76921296540035    1.45885089304996
O          -0.91818515978210    0.36588218851480   -1.79179751545487
H          -1.28935270758349    0.04075478639486   -0.94861132002357
H          -0.98008364764481    1.33672617946100   -1.73332393959868
O          -0.52174599921642    2.99043016115355   -1.14340953950364
H           0.03533687622213    2.82648614684994   -0.36330454803789
H          -0.08363333963236    3.66734830541437   -1.66063153751797
O          -0.52758834946198    1.04958371703268    2.53689606808564
H          -0.36761185641611    0.33831503513745    3.16497689986873
H           0.58542086934602    1.83003987699109    1.55810779913557
H          -1.07538414537549    0.63610610012069    1.84901610500908
O           1.50700838673835    0.13072686363553   -0.76400626332260
H           0.65497954308894    0.23047506972870   -1.26306153909132
H           1.59955828421474    0.95700641458669   -0.25669324070926
H           1.16280137535110   -0.76903689832095    0.38734970752993
N           0.00350673655307   -2.44905619507607   -1.78703631615564
H          -0.14759669283970   -3.19214819375697   -2.45641347386231
H           0.99162809712512   -2.22832662837427   -1.75727791857017
H          -0.49382738939196   -1.61979495047510   -2.09805936649206
