    26
        -50.45469713  Gyration_radius:  2.50985173168 Dipole_moment: 5.572
 S           1.33388957252565   -1.05090290628265   -1.41718109619540
O           0.38634098828535    0.03958021987667   -1.57289565058282
O           1.16391836128723   -1.63906684604375    0.00187271377254
O           1.21356818278389   -2.10888569865230   -2.35653842946658
O           2.75006650451458   -0.46849504401820   -1.41972513137508
H           2.78475871016156    0.28411316050607   -0.68952775809883
O          -2.26652060189551   -1.15426755917417    0.98869644425253
H          -2.78576057393770   -1.86968369682518    1.35842436254290
O          -2.79141472087156    1.55000743144440    0.57093516569771
H          -3.33252817253179    1.85595696612513    1.29985137442015
H          -2.70808375582804    0.58575591102580    0.66610355709798
O          -0.14499919561369    2.03890494830622    0.09851518576272
H          -1.11326538821049    2.11655159239352    0.17730700481553
H          -0.00299208965038    1.45443097169551   -0.67128136392400
O          -1.50812176208102   -1.83640412841179   -1.46944325682848
H          -2.00114787225804   -1.44947903658801    0.08379220125385
H          -1.03829459766154   -1.01548608419289   -1.69261851402281
H          -0.90133759363855   -2.53213926227058   -1.74121250898843
O           0.14555276573369   -0.05399436427104    1.68785124499625
H           0.04985976328824    0.80308766641870    1.19646827340228
H          -0.74177107490915   -0.45520398666955    1.66869222487037
H           0.79993491932049   -0.97843165510769    0.70294251135025
N           2.70437917992782    1.29812846548886    0.43483990762322
H           2.57327320421294    0.81483823544348    1.31533885774299
H           1.89764014710389    1.89621556797021    0.28247665002062
H           3.53305505994952    1.87486913186144    0.49631603995509
