    26
        -50.45469738  Gyration_radius:  2.51022483778 Dipole_moment: 5.581
 S           2.20157382613765    0.19590837120029    0.10673113832783
O           1.11640724528874    1.15795016319378    0.19881080167486
O           1.60814212361046   -1.15991624657172   -0.33872887510465
O           3.25235534769264    0.53779773546572   -0.78491138033995
O           2.73748943043246   -0.06883490350651    1.51638957362877
H           1.92330868184529   -0.34389936524933    2.11891292073710
O          -1.30484352964898   -0.47395390424620   -2.34978562001801
H          -1.44169246194073   -0.89365105931459   -3.20028523770240
O          -1.26696476503412    0.87646828893306    1.34429119191302
H          -0.41683560047467    1.19307342429918    0.98169796306739
H          -1.94143277406750    1.20609252164989    0.72266826060181
O          -2.87421017324343    1.25545822824113   -0.83199607049491
H          -2.34579981021458    0.72160627283480   -1.44987750397944
H          -3.78695506419000    0.98634451100215   -0.94246461097199
O          -0.85098099488623   -1.45570296486568    0.16989524634310
H          -1.15565660626503   -1.28830690590969   -0.73988291467203
H           0.62091415184329   -1.30440164397402   -0.08432540203299
H          -1.09884148610857   -0.63956868232821    0.67738410921252
O           0.94515187398396    0.94328001063045   -2.45486468741466
H           1.85116169417591    0.62984614995997   -2.53768350029166
H          -0.46063710242289    0.03356549716760   -2.42906744161270
H           0.90645386737914    1.31485165978550   -1.55774734505944
N           0.67055945086727   -0.78173790949237    2.85054446158317
H          -0.06060608581674   -0.09444221452188    2.69285949741442
H           0.81856181202990   -0.88037869958894    3.84624497715912
H           0.35337695905570   -1.66744831481640    2.47519043801744
