    26
        -50.45469727  Gyration_radius:  2.51011406375 Dipole_moment: 5.576
 S          -1.05123552591957    1.07312688792507   -1.62460390655191
O          -1.71288184023802   -0.19370379760277   -1.03613234988692
O           0.28294083155987    1.19147686254868   -1.06129029268255
O          -1.11599408010823    0.99390958140126   -3.04083350137696
O          -1.90618206856210    2.22829220715509   -1.09620114835073
H          -1.84203623542540    2.21680204499245   -0.04878539307875
O           0.90573296414987   -2.55692879981690   -0.29605986196541
H           0.84930778017341   -3.47188145703684   -0.57512762855439
O           2.76421565091756   -1.16148482110759    1.24056903240264
H           2.20445804845307   -1.68833247324842    0.64480971887307
H           3.07113446977380   -1.75266764141311    1.92905027038925
O           1.05052695786471    0.95381138001444    1.47413389204090
H           1.83388788664064    0.37452611670466    1.49901073396836
H           0.93950245016183    1.18350799692413    0.53113278986600
O           0.86858320805918   -1.00500786074055   -2.45790277926274
H           0.88255279781613   -2.01753222272137   -1.12366819965327
H           0.15151220935005   -0.85918867322686   -3.08277518015154
H           0.96284209760438   -0.15025109654524   -2.00527462021365
O          -0.75790046124528   -0.95262464760122    1.17887973338145
H          -0.23169316131189   -1.68355250526133    0.80807154777265
H          -0.09429201918235   -0.25363613403355    1.41561472650248
H          -1.36270832358863   -0.47318351947681   -0.10915939208143
N          -1.70524015362171    2.04233850186505    1.45057035172245
H          -2.11683539316559    2.80733525659364    1.96868026773323
H          -0.71930575287260    1.97783431784378    1.68629151740786
H          -2.15089233737377    1.17701451584091    1.73099968174704
