    26
        -50.45469729  Gyration_radius:  2.51011136057 Dipole_moment: 5.576
 S           1.65525704481912    1.44126650998979    0.27566523333994
O           0.22255863423041    1.52293898502577    0.50412529865558
O           1.94917775272781    0.12559270618752   -0.48039135943087
O           2.22285839711766    2.51515501145429   -0.45972282808780
O           2.35388783923326    1.26693421557328    1.62691510590377
H           1.91198580614827    0.44643043511085    2.10986209040489
O          -0.94711859107215   -0.66716572123846   -2.47085363521900
H          -0.87303933175915   -0.90196089839380   -3.39691125252934
O          -3.11183688383995   -0.56695331147926   -0.72068623491347
H          -3.69460892245897   -1.29437095858449   -0.94180729461713
H          -2.42011508456521   -0.54157209625093   -1.40388757666838
O          -1.42947880549296   -0.34842534594507    1.42105508536911
H          -2.21410589501357   -0.36764965958740    0.84327236328327
H          -0.96495415415061    0.47775345032807    1.18434662141920
O           0.19581913881441   -1.67330956880273   -0.19006048603849
H           1.26480323026126   -0.62657925533156   -0.32013309359311
H          -0.44717517941972   -1.29020871130764    0.46171624067811
H          -0.21919476969045   -1.53980755932578   -1.06094565243211
O           0.00249123913303    1.79714873982287   -2.14080085682755
H          -0.57918277996368    0.24649222953549   -2.39110417734920
H          -0.17931270598894    1.87924912360153   -1.18974244657213
H           0.90762972217112    2.11095996889364   -2.23202640173649
N           1.22556363511718   -0.78780099105638    2.65891028796920
H           1.46758186705460   -1.58932318404677    2.08884922406534
H           0.21963574951735   -0.65718570668584    2.60531753197338
H           1.48087305714596   -0.97760839752585    3.61903823290059
