    26
        -50.44980596  Gyration_radius:  2.65144176604 Dipole_moment: 2.061
 S          -0.51844351884503    1.21551134711105   -0.96987669430869
O          -0.79087201051723    1.56022009413447    0.50183761472930
O           0.87566822345554    1.44558441684363   -1.26451780237152
O          -0.98215554395207   -0.10607384775406   -1.26705447515072
O          -1.38121660128908    2.24780577045424   -1.70916955681455
H          -0.91760571849875    3.13238356621329   -1.49333007490580
O          -0.80976097371505   -2.38416418043197    1.89284563914876
H          -1.42379427712746   -2.63590641918640    2.58337357533525
O           2.12247356114202   -0.60747703955050   -0.01236422440789
H           1.73294179715434   -1.43873519652146   -0.33166133800410
H           1.81464801336786    0.09907823792569   -0.60507731040179
O           1.04643370686052   -3.18035670326056   -0.09337698456165
H           0.54910221930416   -3.00812353867530    0.72078799671544
H           1.82020302811581   -3.68737647144806    0.15798905319670
O           0.49327495792399   -0.00665238618813    1.95063381661723
H          -0.02049056761434   -0.83786437730477    2.02264967254174
H           1.24547668758399   -0.21924978106000    1.33588749747726
H          -0.26785330486777    0.92092471129089    1.16539991668485
O          -1.86133124864431   -2.49940577670308   -0.49794461772626
H          -1.18448137447382   -3.03333970231135   -0.92632503793095
H          -1.32338608462758   -2.39391253751420    1.03765259237912
H          -1.70144701463462   -1.59456038978580   -0.82481028034542
N           0.15524830595776    4.15724981845357   -0.94971022528047
H          -0.00781997691183    4.39127912899566    0.02060943024298
H           0.43131889532067    4.99214292503785   -1.44942158359272
H           0.90386881951961    3.47101832122428   -0.99502656927737
