    26
        -50.45632355  Gyration_radius:  2.51390925444 Dipole_moment: 2.111
 S          -0.03112190645025    1.58995187136701   -1.59335469949838
O           1.26680609260927    0.92340689603415   -1.52884890102638
O          -0.80476444471251    1.17702419159249   -2.73836689584029
O          -0.73192821218342    1.49254665494008   -0.32326052636602
O           0.26906912766159    3.13377562748606   -1.79133040988593
H           0.41445686786250    3.17796946149733   -2.72994274475131
O           1.15412499301357   -2.01898183823280    0.50463870929579
H           1.43427242528316   -2.40714155113263   -0.32688256472975
O           0.46515686542587    1.43967232264828    2.02830107894134
H          -0.07941584662391    1.66594332266647    1.24306862080192
H          -0.00930887787632    0.67035984831153    2.46441648241563
O          -1.11749771498086   -1.44332995115725   -2.67688656867327
H          -1.86803409786035   -1.63042234670593   -3.24369087972683
H          -0.93698839710650   -0.48242349244335   -2.78234893535023
O           2.20617156071449    0.30444610156518    0.69901060122177
H           1.91511595449789    0.62299839759703   -0.24214586797113
H           1.51975877817954    0.84395020861551    1.37567323136837
H           1.89299321193061   -0.66820725384883    0.71420650835306
O          -1.24600151016096   -1.10540365583997   -0.02816458826441
H          -1.16009147809137   -0.13292581894867   -0.09046325994063
H          -1.32020113927168   -1.39904366170730   -0.96013513882246
H           0.21183333122904   -1.72575568211742    0.35754822436307
N          -0.73844084106838   -0.76617478262462    2.88914183001723
H          -1.38512221078925   -0.74209785178309    3.66652481018931
H          -0.06403104998015   -1.50181652698561    3.06006944844301
H          -1.25681149125226   -1.01832049079356    2.05322242543858
