    26
        -50.45606822  Gyration_radius:  2.57870878966 Dipole_moment: 2.268
 S           0.19520141851195   -0.13781511348263    0.87610564524360
O          -0.00676116546011    1.06711976960917    1.74059621813998
O           0.35523890779177   -1.31999516454620    1.67735055544788
O          -1.13702619161499   -0.24402922206437    0.08573073155774
O           1.26347454631494    0.08145494719563   -0.07609081641727
O           1.45833739502342   -2.49547642706591   -0.71154379447627
H           1.61345155147211   -2.88338956400385    0.15393840310097
H           1.53633070338746   -1.53155993968277   -0.57932047196477
O          -1.91529539576386    2.02447844159865   -1.19623105452181
H          -2.85583521817984    2.13828250741707   -1.04793920719990
H          -1.68408302047751    1.14276888935342   -0.85196728337528
O          -1.26975972182586   -3.43334229780853    1.62926907110148
H          -1.96264831983991   -3.31549033818223    2.28050363930727
H          -0.62204233512323   -2.71597641036603    1.78365706320108
O          -1.17886589104303   -2.52549185052897   -0.87778331081081
H          -1.37762011390960   -3.05332576596982   -0.07333756748940
H          -1.20026070304445   -1.20963160243129   -0.37082312509128
H          -0.20935587422012   -2.65146287782373   -1.02810599045765
O          -0.07244119837214    3.10411556900010    0.38787297636590
H          -0.79267356103393    2.89093346427736   -0.25046768009362
H          -0.02696035169632    2.03981361730044    1.14587930438403
H           0.78811832931622    3.05542516161473   -0.14766002883268
N           2.08113792890765    2.63623338745200   -1.01615087295207
H           2.03172884854499    2.74884346941149   -2.02049106300134
H           1.99530322831783    1.64162418308220   -0.80535792254866
H           2.99330619398882    2.94589316663970   -0.70763340866186
