    26
        -50.45632295  Gyration_radius:  2.51332372127 Dipole_moment: 2.107
 S          -0.22690126164818   -1.04943817418841    1.98044444931631
O          -1.44526530443140   -1.15595911826209    1.18219721724888
O           0.51941228450145   -2.28311372176647    2.01067754865783
O           0.54981952693208    0.11774700715938    1.59557072334378
O          -0.69243744274392   -0.77259999600227    3.47010085432816
H          -0.90301158924495   -1.65089113197917    3.76742280196649
O          -0.89894059046572   -0.10427771203839   -2.19350657496650
H          -1.17785507649378   -1.01045143170529   -2.34084828540682
O           1.09703601203995   -3.00188061546864   -0.46229830459510
H           1.81708074610060   -3.63124116150096   -0.39168649533426
H           0.81601857720495   -2.81394546333867    0.46118639227428
O          -0.50027478480979    2.37409767801243    0.71592633721138
H          -0.02719779544822    1.68019595043916    1.22473926186890
H           0.07653577081301    2.55205108685997   -0.08592157842305
O          -2.18176519855107    0.80430081921359   -0.17587681371747
H          -1.98174030363737   -0.00396681110630    0.43935797501707
H          -1.51998992908342    1.59615341177049    0.21776563531119
H          -1.76535141058052    0.51888569616063   -1.06448501406289
O           1.36287376713331   -0.37657494696993   -0.89324943153956
H          -0.00066627426320   -0.16918825873287   -1.76414285147072
H           1.16822840961057   -0.14723779840554    0.03770188648673
H           1.41301413070645   -1.35504434100956   -0.89247534241266
N           0.97622380666609    2.51748683630123   -1.48730681007689
H           1.47303021016669    1.63435573210252   -1.42109701598959
H           1.65740141502360    3.25429412161390   -1.61498826642117
H           0.39472230451333    2.47624234283937   -2.31520829861572
