    26
        -50.45632278  Gyration_radius:  2.51307909548 Dipole_moment: 2.106
 S           1.08349307305066    1.47343364247243    1.31556992740381
O           0.50518990717432    0.38651382262235    2.10128974836751
O           2.51371092915333    1.34971454756180    1.17675427329630
O           0.36775058632534    1.65135722273293    0.06269577060054
O           0.82773464911518    2.80365034162262    2.13863894877864
H           1.53719935109989    2.77337374745302    2.77091468425375
O          -0.62172656744025   -2.28865568814389    0.00933013725726
H           0.02337476419648   -2.75345005704274    0.54651741639962
O          -2.21402881812201    1.19775690788050   -0.24676373631113
H          -2.21219260817286    0.65937737650858   -1.09374267264057
H          -1.31814278069474    1.59624100491138   -0.19284040448589
O           3.07290974597774   -0.98536725196177    0.08140156699062
H           2.90428842542379   -0.15314666440537    0.57752615904839
H           3.96757287623027   -0.91029298758396   -0.25539820327952
O          -1.73699224482422   -0.50929826929326    1.46927768661927
H          -2.07157835321991    0.25105027505724    0.74137548924505
H          -1.41481100086157   -1.29994998450273    0.90736604939545
H          -0.85285506264825   -0.11637935606110    1.83760954595810
O           0.84002026455162   -0.57082018246198   -1.32979006520595
H           0.67530378694333    0.30185833632271   -0.91940177699701
H           1.71996059025849   -0.83309723020088   -0.98802382403356
H          -0.09112915830566   -1.67438577382244   -0.57079531844215
N          -1.95616447894433   -0.40804913626324   -2.34689237547128
H          -0.94367138870228   -0.46369855186080   -2.39967213414123
H          -2.30572817543245   -0.14090615981721   -3.25771434203166
H          -2.29948829212973   -1.33682994171034   -2.13523257057677
