    26
        -50.45632296  Gyration_radius:  2.51312628031 Dipole_moment: 2.105
 S           1.26660048067259    1.76853995235828    0.58405723735709
O           2.61479280249630    1.36930407596252    0.90502908444392
O           1.00878937874012    1.75010026812022   -0.85344876489718
O           0.23359222416600    1.04771531848510    1.30995661116141
O           1.12645127165231    3.27925686475449    1.04278784927392
H           1.97730655340143    3.62911955639337    0.80252069236885
O          -0.40957184615287   -1.36343378672117   -1.89909645331447
H           0.38889263270374   -1.35552904302422   -2.43120512411228
O          -2.29160158321233    0.91717187220807    0.55308367244765
H          -2.46872096378519   -0.06566242074141    0.65195499777000
H          -1.44922212151057    1.07650843309489    1.03194962138840
O           3.05928710735750   -1.03577320354597   -0.08703473661763
H           3.82079920810655   -1.37785166559900    0.38471503141774
H           2.95872331040057   -0.10357040729130    0.20953109392255
O          -1.23993681692466    1.04524962540506   -1.67505777545834
H          -1.81606781039111    1.03439561909555   -0.73283181688407
H          -0.32480785542246    1.43833978327875   -1.39246636135826
H          -1.01473847460948    0.06685645960847   -1.86673120956826
O           0.50479735977862   -1.49358685735824    0.55582581373550
H          -0.10082641531655   -1.48722136886052   -0.95843746623647
H           1.46257091889592   -1.53722687451831    0.35390969207256
H           0.38219779303723   -0.60154032199934    0.93830085671141
N          -2.46447244178038   -1.73180884438348    0.64884147942144
H          -2.66071394733620   -2.11327343443554   -0.26836313588081
H          -3.06327196059336   -2.19519436494441    1.31958036711576
H          -1.50084878437364   -1.96088523534272    0.87262873372132
