    26
        -50.45388639  Gyration_radius:  2.45367583088 Dipole_moment: 6.307
 S          -1.00657409028967   -0.01424341790303    0.39069977165614
O          -1.21010257324870    0.66004133296553    1.66445410794622
O          -0.03262261408689    0.76229049743924   -0.42263245937158
O          -0.55597087630152   -1.37667800545249    0.52715968549977
O          -2.33175557086450   -0.01875473821162   -0.40767719029988
H          -2.59659700662655    0.94607224468903   -0.41490811582827
O           2.02381808162329   -2.40112593729347    0.20015437100757
H           1.33329083136731   -2.58318055191666    0.85044782254839
O           1.08148070352301    0.27416892255446    2.84345233168037
H           1.21324809459838    1.01539157027281    3.43803672959723
H           0.15819899242200    0.35839605397689    2.49272732525982
O           0.48222504325664   -0.01170960243379   -2.92475369433370
H           1.31923806081996    0.40403906271077   -3.13848398842562
H           0.20346011206727    0.35268436581894   -2.06100816719281
O           2.16362033074768    0.05026767507118    0.53402806803198
H           1.91159730480569    0.14355338113281    1.51261017585174
H           2.18333352701469   -1.04079165617561    0.35273973213726
H           1.30551338824268    0.39012293067991    0.05393588549478
O           0.36667781316583   -2.48061402659401   -1.77758445219282
H          -0.27003761401858   -2.21633709917412   -1.09195159440446
H           0.41670870958434   -1.72000492520216   -2.38631367701413
H           1.54191378700609   -2.51712446701814   -0.67733050209777
N          -2.51233880413877    2.54222869146676   -0.01295126412715
H          -2.07394216701408    2.28912350495323    0.86857736925452
H          -3.28708432426319    3.16753561272453    0.16595353464536
H          -1.82729913934927    3.02464858091284   -0.57938179536706
