    26
        -50.46272427  Gyration_radius:  2.48118108869 Dipole_moment: 6.117
 S          -2.26935074036225   -0.49138175675964    0.27845932392520
O          -1.60860837621258    0.00420948825041   -0.94498626521503
O          -2.31996843893329   -1.92947641190104    0.34158316291404
O          -1.72666134845146    0.16955291606484    1.43962375303339
O          -3.78614141694655   -0.01963825383073    0.14185764922782
H          -4.20460700363316   -0.83404389231080   -0.11702104038813
O           1.95873127084709   -0.45558052612354    1.24725817515084
H           2.59633176270840   -0.94901320699748    1.76502845047102
O           0.44938753338663   -1.29155136863894   -2.16090385671364
H          -0.39316907348705   -0.87844237459972   -1.90265339562662
H           1.12664671703380   -0.61400103615063   -2.03484081945850
O           2.32047209328421    0.65480278015716   -1.16267346867169
H           2.26732036336844    0.22987154796934   -0.27435562526719
H           3.24616607615879    0.67822198017030   -1.40677076445659
O           0.36788203982561    1.63340849493215    2.03034170793754
H           1.04030401938243    0.93148825339051    1.96214105478160
H           0.16571211496620    1.98517076232077    0.54797792131986
H          -0.47999519129254    1.14379675827678    2.07592720061866
O           0.32428083849451   -2.23625668056066    0.36904138899143
H           0.44516883637971   -2.14716960933211   -0.59925596843331
H           1.26154672508244   -1.13091876444272    0.97213544149719
H          -0.64251107082635   -2.21134957506294    0.49744452492882
N           0.00788010396409    1.97904468147965   -0.52166214882729
H          -0.71661293861585    1.20676434348175   -0.70709950084833
H           0.89285005358183    1.69983635961120   -0.97027690220024
H          -0.32305494970279    2.87265508060627   -0.86631996869137
