    26
        -50.46400332  Gyration_radius:  2.43623996317 Dipole_moment: 6.320
 S           0.20414775918004    2.04699559500906   -0.91716668426069
O          -0.24593558487721    0.79165835904876   -1.52350862616927
O          -0.87598427747365    2.79454913953203   -0.31486785591258
O           1.33542186029088    1.85544317391585   -0.04081257855911
O           0.71516450052448    2.91039437494915   -2.15248895466087
H           0.88454948978764    3.74782009527245   -1.73482903123590
O           0.35800423002933   -0.90974752285931    2.27347860525334
H           0.33873851497104   -0.91850723159233    3.23108839035809
O           1.31759724082585   -1.33279361259494   -1.45850890845505
H           0.32433235267660   -1.96960320417506   -0.62876812109951
H           0.83268065921590   -0.50364462072099   -1.66994188119557
O          -2.33936081453971   -0.46966901372459   -0.69757435448636
H          -3.03580152669788   -0.39094589356792   -1.35061137034152
H          -1.58063470745593    0.07776965652103   -1.04335560694172
O           2.59335723573888   -0.37795797423557    0.61443564455692
H           1.98313665498804   -1.05148869809855   -0.77311269820173
H           2.29634020759568    0.52834586096410    0.38944529706318
H           2.01497204089233   -0.63632658320363    1.34562414408597
O          -1.29995380488737    0.95410262638700    1.50583738257272
H          -1.96245284975057    0.48420554379473    0.98271902570920
H          -0.17478324038363   -0.11358695847709    1.99802594203246
H          -1.06989351624258    1.73541955440737    0.96049355086737
N          -0.47679802396526   -2.27919412222005    0.08841498327492
H          -1.32914567461664   -1.75756156197813   -0.19543968180098
H          -0.17826459704744   -1.93506719407824    1.02210851489573
H          -0.62943411878353   -3.28060978827190    0.08931488265159
