    26
        -50.46400458  Gyration_radius:  2.43643971902 Dipole_moment: 6.308
 S           0.60609859196969    1.80576040272736   -1.20428775132328
O           1.94890253780332    1.48552210995179   -1.63132840954896
O          -0.35561911087914    0.74783293501913   -1.52337109377465
O           0.52144940698942    2.22463914439708    0.17496120802118
O           0.13082384780932    3.03866103046811   -2.09100863025658
H           0.82135834169476    3.66879227070253   -1.91590550747519
O           0.70546713613745   -0.92897994924682    2.18260285294033
H           1.31319619615956   -1.16514643743782    2.88430869155091
O          -2.35892780654282    0.24958830800463    0.11949978667477
H          -1.77682467173987   -1.05089686081981    0.34569561219798
H          -1.75244500502500    0.56865411946858   -0.58601091167264
O           0.33802740618645   -1.72608269591227   -1.75692599937495
H           0.29221025932992   -1.98287773708952   -2.67865990298292
H           0.11442636562061   -0.75424421647869   -1.73511245236673
O           2.14550627599635   -0.52204898226158    0.04479879816345
H           2.18345403634635    0.31201797399065   -0.46892787817221
H           1.27397303589197   -0.65181448040922    1.41202107442758
H           1.82476586094074   -1.17785271700876   -0.58796375533013
O          -1.03342379738234    1.30751974781834    2.10931961216227
H          -0.47397869138940    1.80986191373838    1.48084608259962
H          -2.05407228370658    0.73595613631629    0.93335085920575
H          -0.46720457839837    0.57469222590106    2.38912424501837
N          -1.14946622117314   -1.96445576931575    0.49931107968769
H          -1.70439619810677   -2.78148020814266    0.72438127625466
H          -0.48108156273967   -1.73232155795778    1.26007073897824
H          -0.61221937179351   -2.09129669642307   -0.38078967560483
