    26
        -50.46400448  Gyration_radius:  2.43629163411 Dipole_moment: 6.309
 S           2.07785647976941    0.65215003163658   -0.57669492380604
O           0.78337851327289    1.04096162830469   -1.14143844022751
O           2.48145606858290    1.49596100157030    0.52473557016064
O           2.14353327486646   -0.75919119614309   -0.27937936761609
O           3.11027360913383    0.92429607692694   -1.75673511765152
H           3.93726274683497    0.74241890572245   -1.32352484444582
O          -0.90959846670720   -1.48863936100003    1.75409909193195
H          -0.97569675702345   -1.88922877689601    2.62164025052928
O          -1.02430863429418    2.25343127287489    0.24380827607863
H          -1.09457010687074    3.16190524365515   -0.05186690987204
H          -0.27901513676740    1.85359542641963   -0.28486946462572
O          -0.86040960515958   -0.80588157637804   -2.06177006945722
H          -1.77924641940660   -0.42911618798783   -1.01537753692064
H          -0.17608540005840   -0.11352949340061   -1.92133259548204
O           0.27921924276509   -2.61581039674530   -0.55823934268914
H          -0.16107170122870   -2.47969479084960    0.29238109006965
H          -0.45370119509169   -1.62568403443478   -1.66880349911598
H           1.08802478247812   -2.06617910810424   -0.49443810417000
O           0.49566835575756    0.69199058611499    2.03761242341370
H           1.33911371959422    0.89198500029144    1.57981531466224
H          -0.10061818333809    1.39945045610673    1.75973111183332
H          -0.26682925019547   -0.73295905626389    1.85177566317562
N          -2.32593521106772   -0.10281296821339   -0.09534933629978
H          -2.02948151584852    0.87754627201426    0.07868884756609
H          -1.96819524259862   -0.69527195821958    0.67946881825409
H          -3.33102394739419   -0.18169298699729   -0.19393691529564
