    26
        -50.45388633  Gyration_radius:  2.45352450774 Dipole_moment: 6.307
 S           0.90763415948756    0.58035350562442   -0.06533126207030
O           1.97343718959135    0.01868530744153   -0.88201821718281
O          -0.40246357083846    0.29994380225869   -0.71219446882277
O           0.90121342565612    0.08845595695828    1.28957912843656
O           1.04869927745651    2.12042093129492   -0.02192326041790
H           1.09313800706473    2.37243015363861   -0.98926179326087
O          -0.76986646768927   -1.83412979820128    2.43960407084191
H           0.17742235601778   -1.66650570325365    2.52490785254078
O          -2.62391011279124    1.33590151427387    0.34440182090559
H          -3.33384637558222    0.79963721512432   -0.01269378024603
H          -1.80816121235127    1.06281201764645   -0.12088126238359
O           1.61057499029656   -2.53945681080591   -0.54110926032485
H           1.86428474604070   -1.58468944293173   -0.62116737423761
H           1.92771000803202   -2.97099836925303   -1.33704508204393
O          -0.85143945246512   -2.06087428448057   -0.02686430904325
H          -0.88916052012655   -2.00711250247621    1.07698257245506
H          -0.76787097869402   -1.07354873909071   -0.34444097658479
H           0.07036710251663   -2.43056863993976   -0.23507452272564
O          -1.36749284840406    0.66708632347524    2.66792470024044
H          -0.47215907329476    0.78468814532947    2.30755173695571
H          -1.96721253987451    1.01263391107687    1.98046185251563
H          -1.17581765275525   -0.93188413085762    2.63058628258892
N           1.18981908501066    2.12462352779870   -2.61538546146575
H           1.66490247624756    1.24221903065560   -2.44518604949138
H           1.72068576281896    2.66699530419286   -3.28417100232110
H           0.27951221865395    1.92288175451622   -3.00725194488282
