    26
        -50.46400441  Gyration_radius:  2.43615626124 Dipole_moment: 6.310
 S           2.12293561895597    0.59202040662871   -0.46646172776213
O           2.26139880773105    1.87913304346217    0.17548868905026
O           1.61880317160762   -0.44090834048190    0.44176697107422
O           1.38354536303917    0.63944577422108   -1.70578893914466
O           3.59456820954490    0.10421831625469   -0.82547366243865
H           3.91023837567708    0.83599504087629   -1.34445900931367
O          -2.21655711607199    0.83364617223245   -0.71796178746161
H          -2.87710468004669    1.48439010085823   -0.95808376045967
O           0.01678409597947   -2.32669044940758   -0.47363997240283
H           0.76861728204859   -1.76405508916115   -0.18111496700246
H          -1.01252268858106   -1.79036188036610    0.38379885462786
O           0.13854121213612    0.11466836285422    2.48038429910231
H           0.64306190600334   -0.01581539455220    3.28416260393641
H           0.77292275454381   -0.06080503117404    1.73091171492621
O          -0.70129024869543   -0.79893246903211   -2.47077341546772
H          -1.38761167168834   -0.24787452643548   -2.06933067252788
H           0.11581490412870   -0.26783057656781   -2.36825343834615
H          -0.24659898409014   -1.93556033658850   -1.35072271497600
O          -0.32510792412402    2.11451896091168    0.54405788553823
H          -0.31057480660582    1.71412025116689    1.42314116431247
H           0.61768811215122    2.15042390629092    0.27831232530246
H          -1.44483839268222    1.35027854775618   -0.35568903486664
N          -1.72546326811404   -1.19667835314900    1.00877561482211
H          -2.11090389418962   -0.45902351046250    0.38679977481191
H          -1.14793323676005   -0.73853726216130    1.74079517510262
H          -2.45841291189920   -1.76978564397336    1.40935801956186
