    26
        -50.45388634  Gyration_radius:  2.45369224876 Dipole_moment: 6.308
 S          -0.59444923315130    0.79893795979743   -0.41526253752888
O          -0.55514296609622   -0.27564022059557    0.61290992423520
O          -0.48170969345759    2.09290011960051    0.24169498732816
O           0.42562224120811    0.56684556658265   -1.40696012111553
O          -1.97533021134677    0.68906825804139   -1.10417975770027
H          -2.61568524398121    0.90843321708578   -0.36736235462498
O           2.72972845503150   -1.00222064639552   -1.20412436358503
H           2.57066097457451   -0.13473376502537   -1.59793924075226
O          -0.94157248049379   -2.80751174831200   -0.13894707851462
H          -0.92938764616074   -1.87699240293068    0.16188779474598
H          -0.57738566680464   -3.33013431260808    0.57755452743566
O           1.99261164332071    2.05986981437328    1.05871517149241
H           1.08354727377819    2.17546306131136    0.68089024997504
H           2.03035465719402    2.60872871302456    1.84461093216239
O           0.59383290124527   -2.01241017503190   -2.24515969713697
H           0.01673412919439   -2.48998410695132   -1.62029862219929
H           0.29295837868949   -1.08842150916012   -2.21445694507488
H           2.01430602775553   -1.57406105757604   -1.62414223075146
O           1.89094341853928   -0.49820132353997    1.07273172845366
H           2.31275305261187   -0.78810617965569    0.09260245414394
H           2.09442580662540    0.49242452120315    1.15730821274242
H           0.85948288286865   -0.49843171534351    0.93531800694176
N          -3.08613673799397    1.40231086157506    1.13280905367320
H          -3.02932155374495    0.64514537267142    1.80083792083676
H          -3.88445094801455    1.98008591357627    1.36092277508732
H          -2.23738944151027    1.95663577473652    1.20803922971073
