    26
        -50.46400303  Gyration_radius:  2.43602364607 Dipole_moment: 6.317
 S           0.02656111808051    2.09099463892945   -0.83498401276480
O           0.57999771786468    1.91879774869138   -2.15877528432027
O          -1.10849717490409    1.20166969935552   -0.57638274809825
O           1.01352622065184    2.03678999232084    0.21726543805780
O          -0.61049420529495    3.54888334793922   -0.79996355653530
H           0.12439708010237    4.07891525800547   -1.08930360216024
O           1.75795039688945   -1.58699922328077    0.71594213042120
H           2.60113031840887   -2.04021140823467    0.68256190769660
O          -1.48273042612429    0.21775520865881    1.84276855010490
H          -1.47091265769569    0.74205156673185    1.01065754732215
H          -1.23774699215077   -1.09107952991316    1.28756201977010
O          -1.38353829391444   -1.07059745612422   -1.76666404204166
H          -1.29025534236083   -0.15596781507798   -1.37984862373501
H          -2.10700541189574   -1.01599038628625   -2.39221922090177
O           1.38194371690888   -0.52428525626012   -1.63808258780054
H           1.25635123678634    0.43040892642501   -1.82096876169465
H           1.68769848878745   -1.07986439979715   -0.13934392638485
H           0.57107159320430   -0.93843685523080   -1.96104818831040
O           1.04464251475774    0.56544468674518    2.41595999671613
H          -0.59997759124790    0.41332316734279    2.26021452783217
H           1.45067093015428   -0.22357902968244    2.03059800474071
H           1.12089230543635    1.23797727759542    1.70735624228001
N          -0.91900013383631   -2.01065377210564    0.73574867833783
H          -1.18232583713154   -1.85208702546718   -0.25655631007548
H          -1.34194348973440   -2.85200782896679    1.10909633028401
H           0.11759391825713   -2.04125153231348    0.79840950126132
