    26
        -50.46400447  Gyration_radius:  2.43652815734 Dipole_moment: 6.307
 S          -2.07953719424402   -0.66428358479280   -0.55948116913460
O          -0.79671659870914   -1.34528222284738   -0.75047928542830
O          -2.68516974651757   -0.96492341007262    0.71763141068229
O          -1.99628236418034    0.74912436414721   -0.84247139287815
O          -3.02383250925734   -1.30286940092849   -1.66960544710179
H          -3.85789186817061   -0.89844697134351   -1.45650741011484
O           0.92120309766445    1.98724890930184    1.15213338750881
H           0.95681826839876    2.69254291102599    1.79924878968576
O           1.14588728649164   -0.14930390206465   -2.07591936654680
H           1.90690110266692   -0.15034567407804   -0.85066215354228
H           0.36996172078805   -0.67356736694280   -1.77521134805420
O           0.70350681191811   -2.04175299377756    1.22955666474329
H           0.06864863661927   -1.82893199038073    0.49023231023822
H           0.68252085810659   -2.99475809004028    1.32423248347949
O           0.10497246202737    2.19119036193516   -1.55374463421247
H          -0.76884084089308    1.77697302727934   -1.39488936072417
H           0.44199775540676    2.36999758715193   -0.66469529033198
H           0.80967448707445    0.78819941646184   -2.08739306945836
O          -0.76744961374870    0.21748139509450    2.06007203400240
H          -0.24069461545913   -0.58648167497837    2.15812201469709
H           0.18223446933884    1.38583495203869    1.44562683523470
H          -1.58234185820804   -0.08110178038136    1.60422034038440
N           2.31915633831342   -0.12607262759347    0.18929464174731
H           3.33096355476557   -0.17228813868478    0.20548678317439
H           1.88669512200809   -0.92981065860039    0.68531891215005
H           1.96761522779976    0.75162755307110    0.61988332979973
