    26
        -50.46400437  Gyration_radius:  2.4361661263 Dipole_moment: 6.313
 S           1.37903073161429    1.66050371476902   -0.64485570895862
O           2.62160242845087    1.34440406286776    0.02146664074252
O           0.84769876785300    0.53277388471214   -1.41403332879534
O           0.38685175296951    2.24482856157994    0.22628012777313
O           1.72276651407582    2.75250101828906   -1.75016946706131
H           2.13650183347274    3.42633461928271   -1.22170842599772
O          -1.06205533237316   -0.61613467154670    2.14781765913440
H          -1.12535261437169   -0.73759881781664    3.09583402734663
O          -1.76030999853567    0.17118332378832   -1.58427765039497
H          -1.57821416865196   -1.06712638376412   -0.86545984201735
H          -0.81621219073875    0.42139168715372   -1.69988006206622
O           1.35663541289980   -1.92260856578042   -0.80785342035925
H           1.24046560768582   -0.96499996811368   -1.06166344247937
H           1.94403836623319   -2.29669226338384   -1.46560036388256
O           1.47903963912223   -0.42648034899493    1.58294031824737
H          -0.10329200380099   -0.41588648479833    1.96289293717075
H           1.64911038925526   -1.16989947869599    0.98997556843935
H           1.91280879317528    0.33649090672547    1.14636646689334
O          -2.12716602753906    1.52281985723789    0.62382962052885
H          -2.07714232857902    0.76806102830187   -0.85279432080310
H          -1.95944142654438    0.85386849572251    1.30226370023829
H          -1.25904849891405    1.96251605857254    0.50826157002001
N          -1.28980932735260   -1.92837465635991   -0.21275455878174
H          -1.32317415678288   -1.57566753201789    0.76392139920725
H          -0.30138067251176   -2.14508299005199   -0.44861876385296
H          -1.89395154011123   -2.73112504767878   -0.34218067029119
