    26
        -50.46400446  Gyration_radius:  2.43627565286 Dipole_moment: 6.311
 S          -0.18343093812589    2.23210251823718   -0.24360559763213
O           0.45954760801548    2.48393808929742   -1.51295666858180
O          -1.21228987549424    1.19284306304568   -0.32784381716597
O           0.74303696360363    1.99857446402406    0.83886219578796
O          -0.99664268981822    3.55050417293678    0.12071564162343
H          -0.31049397432505    4.20791269508821    0.07939061887589
O           1.89631710715275   -1.53466208586057    0.41300246187718
H           2.78847952302017   -1.87373647254612    0.33245834508838
O          -1.59548841809480   -0.44886550087628    1.70132313822319
H          -1.60291050568241    0.28164674299011    1.04277706376852
H          -1.16426805892074   -1.52304454974860    0.84029236868611
O          -1.14553457445631   -0.68118414754959   -2.09979603595019
H          -1.18420204166842    0.09717790331876   -1.47728563949166
H          -1.83743593285958   -0.53257397282234   -2.74538399520814
O           1.52309145520756    0.08802467298702   -1.59636249392130
H           1.29191857522272    1.03826323653494   -1.52867014150417
H           1.81185473571460   -0.82320713893393   -0.28014764215272
H           0.78779522081543   -0.30241796017488   -2.08641847950366
O           0.83662614445689   -0.01260840577434    2.55561514652670
H          -0.76626312351409   -0.28586514471851    2.22831377943525
H           1.35568530893862   -0.61942846132418    2.00945170594164
H           0.86794071827039    0.83308062506449    2.06149727522513
N          -0.70692228174402   -2.21821848345871    0.09241012634957
H           0.32079315408140   -2.15890397771315    0.23264149050293
H          -0.93319211056256   -1.82090511157385   -0.84049749776397
H          -1.04401198923230   -3.16844674044764    0.19021665096122
