    26
        -50.45388637  Gyration_radius:  2.45362656637 Dipole_moment: 6.307
 S          -0.46897491945467   -0.61147641937733   -0.75543660400248
O          -0.93321656191573    0.08211869982508   -1.94791259806712
O           0.81516101371993   -0.00771809375355   -0.30836096148305
O          -1.42147779801708   -0.59565326119868    0.32637687013849
O          -0.15607371338255   -2.08564229758045   -1.10538234794540
H           0.46588451918703   -2.00757510760224   -1.88522246149218
O          -1.42339471142182    0.99382104309158    2.62549514041768
H          -2.13183730797526    0.71645156814459    2.03047509006627
O          -1.60488743318900    2.40724028377521   -0.98157244659457
H          -1.48628899679818    3.04405283298960   -1.68917487822106
H          -1.47046607152448    1.51232763366503   -1.38597414837663
O           2.13000999813422   -1.11589332123773    1.73324317160294
H           1.72426577754883   -0.78454881354595    0.90734114521403
H           2.72156694364365   -0.42727509821506    2.04141564282656
O           0.05732255013898    2.02726919464600    0.92820624291668
H           0.47050949885254    1.19649526469184    0.45733363036751
H          -0.61052796840471    2.35362626749742    0.23727940337204
H          -0.56359565573251    1.61661828730425    1.74596676199961
O          -0.39721658046440   -1.37334650855009    2.71986040140565
H          -0.97701135179538    0.12259815876053    2.86432091371171
H          -0.81298257802775   -1.45209831858566    1.84451562537859
H           0.56272310133400   -1.41341551922486    2.55130637428233
N           1.30074626472302   -1.24769922915641   -3.08589789401470
H           1.46350847999045   -1.58858695527391   -4.02427156725029
H           2.15657132457772   -0.84003852674393   -2.73343751181947
H           0.58968217622251   -0.52165173433771   -3.11049298443350
