    26
        -50.45606840  Gyration_radius:  2.57843582819 Dipole_moment: 2.286
 S           0.56195735276749   -0.06425699056053    0.71189981524619
O          -0.02807573202892    0.42555140905458    1.99689489351791
O           1.76610530227405   -0.81046204846294    0.95398970623704
O          -0.52278029736600   -1.02807066421636    0.15923013117035
O           0.71803502449295    1.02156394119577   -0.23299157786231
O           2.12390568609866   -3.37907896474436    0.33645853873971
H           2.11714328566767   -2.45413932346893    0.65653440184411
H           1.86458806097570   -3.92353890541016    1.08101833119422
O          -3.03366382115702    0.00441727377046    0.00901249550644
H          -2.16377784439867   -0.42914713662999   -0.06037713491435
H          -3.64431773599334   -0.65840446789634    0.33655924081011
O           2.30886145131799   -0.37810520164850   -1.84297763518614
H           3.00518953269490   -0.63238541997189   -1.23136634193599
H           1.76796198059699    0.27493918995761   -1.35946338039540
O           0.59031436365601   -2.37079189802158   -1.59946493357404
H          -0.09959806061339   -1.62371701255245   -0.62253270277834
H           1.22990516215229   -1.69464953151097   -1.93439330260654
H           1.13223370126157   -2.97366145587817   -1.04438480522975
O          -1.95918198429733    1.86535119066373    1.57366872374288
H          -2.52628798901308    1.27305516047859    1.02632812239804
H          -0.92400101243007    1.11561482163258    1.83931538872241
H          -1.59427229103970    2.56163684815316    0.93157426636873
N          -0.84252658139055    3.39626385193405   -0.22466413440539
H          -0.14913066390549    2.66982531134306   -0.40501233734464
H          -0.35212249773659    4.24344159921506    0.03008622940949
H          -1.34646438258374    3.56874843353643   -1.08494199868365
