    26
        -50.45388641  Gyration_radius:  2.45348121988 Dipole_moment: 6.306
 S           0.93983734401751    0.09016711248769    0.52426376484208
O           1.36765073430943   -1.07652157592463    1.28201317380703
O           0.29338709171613   -0.35798978955111   -0.73854804493248
O           0.04525983467586    0.95327436849714    1.25407452707405
O           2.17911342264395    0.91686885338869    0.10684480785436
H           2.76165663833551    0.24084186327145   -0.34560516409232
O          -2.73008879258440    1.18665457028488    1.02064509706223
H          -2.14425035924638    1.17517860823085    1.78844596494222
O          -0.46015346509276    1.46801527697390   -2.53370237475155
H          -1.10334948357994    1.01579021111530   -3.08224767596655
H          -0.07167323539092    0.79062522230970   -1.94484375852255
O          -0.91322251812790   -2.08560767323692    2.03781258494494
H          -0.77875364436385   -3.03094136699661    2.13020785307914
H          -0.01880337131933   -1.69110804617825    1.87429347068660
O          -2.01111837105324   -0.96163613853726    0.01621399744412
H          -1.08934297354512   -0.71621870377588   -0.39930458350647
H          -1.74049129829365   -1.49655312633156    0.83494854042821
H          -2.40799775628029   -0.01185024394839    0.42063783182349
O          -1.20554308820203    2.81153002143723   -0.28355729949174
H          -0.98947328487969    2.53335222679991   -1.19327217893452
H          -2.31966393655370    1.89714699392346    0.43569948422054
H          -0.51592101147095    2.41427813141177    0.27493372050761
N           3.23594563542239   -1.25573721102310   -0.84678615419164
H           2.75747951708655   -1.52220441147375   -1.69704138215758
H           2.74006652946485   -1.66796161938334   -0.06100293198734
H           4.17944986231540   -1.61939356379181   -0.87512324019522
