    26
        -50.46400444  Gyration_radius:  2.43683718183 Dipole_moment: 6.310
 S           0.97088367231138    1.38286096248437   -1.49196156505734
O           2.37345633176540    1.05268820439614   -1.38189257259773
O           0.12942527032905    0.20506682338724   -1.71685051381439
O           0.48307470867297    2.20568701905311   -0.41041782297783
O           0.80946570815153    2.23260134795175   -2.82746305946412
H           1.42851726033359    2.93784284770248   -2.67250084770290
O           0.00424075432975   -0.14326465375491    2.47061652723613
H           0.36894504977181   -0.09853980846791    3.35520527807983
O          -2.28234218551095    0.08805852417570   -0.65300417756055
H          -1.48702088915487    0.21813659079300   -1.21678134882282
H          -1.81867817329587   -1.02722165908471    0.13660970531432
O           0.81450618440919   -2.15519003865146   -0.93255528102856
H           0.61341360918343   -1.24566814808987   -1.28943404100830
H           1.03880448383285   -2.69010822223432   -1.69491483296856
O           2.02525470047965   -0.31262640401714    0.82920824386734
H           2.22992248154807    0.32022152995506    0.10881546713259
H           0.78287518810303   -0.07776255055190    1.85142108224260
H           1.89598782731031   -1.15605800339520    0.37625212474143
O          -1.59125295636753    1.81411095264506    1.18543480340052
H          -1.14640466189950    1.25165288168257    1.83486988095493
H          -0.86200760302549    2.13963413368544    0.61765149470250
H          -2.22529705558178    0.82618114178487    0.01304883266376
N          -1.28297177722901   -1.79469236359913    0.74929615997414
H          -0.86830863746575   -1.28516976936973    1.55410647521621
H          -0.50958559841028   -2.14625309826717    0.15111514123224
H          -1.89490370258856   -2.54218826021498    1.05412484624341
