    26
        -50.45388615  Gyration_radius:  2.45383182468 Dipole_moment: 6.308
 S           0.15087750832670    0.50138528182866   -0.94233331827030
O           1.48851152550376    1.01938858513561   -1.18939534457979
O           0.25541489227045   -0.80103711526989   -0.23092211887838
O          -0.68600634621433    1.40431637019863   -0.19251544046201
O          -0.54396943472743    0.20328803499851   -2.29208736306184
H           0.11632002291756   -0.38185957977085   -2.76413904879606
O          -1.37418724778433    1.30308641299156    2.51532948534393
H          -1.13341483983637    2.03856284609155    1.93751821650925
O          -1.96435795436890   -2.20863968070613    0.23489919254551
H          -1.72393199561762   -2.81186631688882    0.94019831055763
H          -1.13857236688056   -1.76578862300584   -0.04528570652043
O           2.26475288961396    1.65077860639809    1.21694228615064
H           3.22021042590989    1.56555976835252    1.22911502414634
H           1.98603655705329    1.53345854467844    0.27303147390155
O           0.63532748103130   -0.09700663064615    2.13633158914026
H           1.34652427708528    0.60190539196923    1.94789097523867
H          -0.27183424706910    0.48527264353828    2.38180597130316
H           0.45835749108381   -0.48977866945907    1.18918332714085
O          -2.96355720922257    0.27142190079605    0.76143804109512
H          -2.82994378355813   -0.67996605706232    0.59237828119825
H          -2.11025902210511    0.84537993185527    2.00155972265953
H          -2.37013309340586    0.72645063469065    0.14011468794685
N           1.54892461021190   -1.15913767364102   -3.00661383364471
H           2.01923385706562   -0.44834011290029   -2.45257726843837
H           2.03632371825273   -1.27511538157043   -3.88539413730711
H           1.58335229444561   -2.03171912261318   -2.49647302492105
