    26
        -50.45023517  Gyration_radius:  2.51110964941 Dipole_moment: 0.811
 S          -0.80729147291232   -1.71904681544655   -0.75603372106420
O           0.62485060620128   -1.62570907121062   -0.93383139731289
O          -1.22582996581365   -1.96345999359954    0.60656737463214
O          -1.49909852678279   -0.56059694620725   -1.32892670835718
O          -1.28481286888150   -2.97270679360629   -1.59475567436229
H          -2.13221333553570   -3.12729481734626   -1.19249647398903
O          -0.12884159383954    1.60866805460087    1.76822184302667
H          -0.40908727914896    2.09893560759090    2.54271250530663
O          -0.52298135240097    2.58635353340762   -1.96908313003802
H          -0.80933051436096    2.09953270357845   -2.74530515792109
H           0.31333579659108    2.10703803405479   -1.63399848310838
O           2.38069796457410   -1.62579645929836    1.06883689910109
H           2.69635211027073   -2.52280026276020    1.18737602801668
H           1.79533212236974   -1.64692243905545    0.28271184160548
O          -1.84081905978068    1.56170366161330   -0.10420871540913
H          -1.38270530454431    2.13450037380341   -0.86097488416830
H          -1.78056913806981    0.60818209952033   -0.53453113356065
H          -1.17343568654123    1.57936494454911    0.68549078072953
O           0.23118225566408   -0.81100943655920    2.49223277924590
H           1.11850510776370   -1.06654780958163    2.16938770890113
H           0.02998872531835    0.65464214023979    2.08522052923347
H          -0.38900555086209   -1.29879572508008    1.91012914416630
N           1.38235935903676    1.15341739856757   -0.92559075315944
H           2.34176721327052    1.22890828766260   -1.23875350242878
H           1.09687159075566    0.18165540942746   -1.05228431539223
H           1.37477878766363    1.33778433113566    0.07188659630351
