    26
        -50.45023526  Gyration_radius:  2.51119767426 Dipole_moment: 0.812
 S          -0.03803755234049    1.38241179630871   -1.50518474764947
O           1.07839267350014    1.97779442947435   -0.80465037047243
O           0.19682879285397    0.03201112767262   -1.96605437290282
O          -1.27378448132265    1.47827770413149   -0.72243088585626
O          -0.26879942189292    2.26561322751670   -2.79749525639472
H          -0.11753075732439    3.13129693255772   -2.43483525587485
O           0.64655910624407   -0.40227672133717    2.27011616520459
H           0.96598412940683   -0.28584271315152    3.16629866567677
O          -3.02297441332060   -0.77066508487623    1.05367297764289
H          -2.26697637094094   -1.29981798809962    0.61842623551776
H          -3.51435896899430   -0.37477099758444    0.33025009306235
O           2.37293033338200   -1.38742578638778   -1.37940508696556
H           2.99646962091560   -1.28736412567607   -2.10015099211536
H           1.55989118048199   -0.91572919997122   -1.65776131106661
O           2.51391621115154    0.33788466508527    0.69743750180376
H           2.63454679894758   -0.38626159756560    0.05094236912848
H           2.08358754669056    1.05342724386915    0.18339803189422
H           1.41389722093269   -0.12280979030858    1.66264788229395
O          -1.38565313564139    1.00761402495090    1.70370524365202
H          -1.26442040771577    1.31331071678237    0.70858579764562
H          -2.14824174652631    0.29030581649647    1.58450019344081
H          -0.54369377419543    0.46322138068176    1.95722631074896
N          -0.90480029772149   -1.81018063472719   -0.04499774270921
H          -0.91303049189732   -2.73654880670135   -0.45245066437766
H          -0.17334398277286   -1.79560292355602    0.65764247464631
H          -0.62735782190091   -1.15787269558625   -0.77943324597561
