    26
        -50.45388604  Gyration_radius:  2.45386571699 Dipole_moment: 6.313
 S          -0.88078344705887    0.58073427242119   -0.21850629364815
O          -0.38112431591811   -0.69089314837276    0.37019543864709
O          -1.36465243506236    1.44355857363685    0.84923897044893
O           0.14911130086434    1.18654483925026   -1.02471990245658
O          -2.05906738454194    0.19607479516069   -1.14428140263131
H          -2.74064767672761   -0.16635119060396   -0.50769311874112
O           2.90758133772174    0.74202985016564   -0.95251464883005
H           2.38444013702106    1.54819671123541   -1.04871353371796
O           0.85531671401695    2.10303055123282    2.04429387400035
H           0.63451649227561    2.26757322311419    2.96321977468989
H          -0.00519127757989    1.97633398970958    1.56887345670790
O           0.40575340880239   -2.65300170939576   -1.25926832999612
H          -0.00016520462781   -1.99382070912938   -0.66158787204892
H           0.95222502649799   -3.21802937288189   -0.71049132868408
O           1.45655929108378   -0.55691359428348   -2.64769544577348
H           2.52662735751581    0.14113976955663   -1.66594516286062
H           1.14351051520390   -1.42814672940627   -2.34027094016798
H           0.77616228833872    0.07450783518996   -2.35846414988333
O           1.90261536369760   -0.06160069577893    1.16553273545473
H           0.98080613808895   -0.42712968281572    0.85005662659522
H           2.42194303077091    0.24835019071652    0.24017027064912
H           1.64283776719856    0.80869141900937    1.61857669174759
N          -3.40516008999968   -0.52552946122223    0.95675774409806
H          -3.03276603447126   -1.38927760787649    1.32828863958864
H          -4.38062847608346   -0.45287099158290    1.21428316678967
H          -2.88981980701943    0.24679887280411    1.37066474997639
