    26
        -50.45023524  Gyration_radius:  2.51107848806 Dipole_moment: 0.811
 S          -0.40317627424025   -0.18383162062467   -1.99513851822006
O          -0.57093923530452    1.16303275246479   -1.49633291217605
O           0.97296585313705   -0.61747208877872   -2.09444654432302
O          -1.21363809765934   -1.14419853307007   -1.24022868636345
O          -0.97519014796461   -0.19266008601824   -3.47028400171120
H          -0.56459484419719   -0.98331340203710   -3.80195513912214
O           1.40035318896745   -0.75150417018728    1.79076286217128
H           2.05338291945764   -1.22856789058176    2.30527259297958
O          -2.46368019182523   -1.12552221629794    1.87315397981818
H          -3.12944252643046   -1.18880533739868    1.18448721601711
H          -2.02449319508960   -0.21278980559316    1.75087261176105
O           1.41872019936605    2.66914220008830   -0.56493131804562
H           0.64399299251272    2.18307088536594   -0.91772215843053
H           1.72404377787859    3.23260990966687   -1.27737579547852
O           2.60941526186220    0.26738423010333   -0.21132805643538
H           1.90839240129741   -0.33626967591255    1.01266382149536
H           2.12838581228567   -0.12737040699072   -0.96909762916435
H           2.36046781055901    1.21308594404290   -0.23228369091287
O          -0.45131207957584   -2.21311401429010    0.85651195476529
H          -1.30058362477456   -1.89284158841608    1.39142163304504
H          -0.67819540388095   -1.83084931891995   -0.09250943212916
H           0.32941124643494   -1.64759895828177    1.23117804273002
N          -1.11900238906008    1.03585376091942    1.32920630534797
H          -1.42529748743272    1.94895061901447    1.64021410992134
H          -1.04978595094701    1.06917222441880    0.31139417473186
H          -0.18020002537816    0.89440659731562    1.68649455773048
