    26
        -50.46272427  Gyration_radius:  2.48116559965 Dipole_moment: 6.117
 S          -0.30932389316681    2.29851464554765   -0.29994298447296
O          -0.17094988641170    2.85481496439750    1.02144368130253
O           0.86064489412437    1.49615073932208   -0.70781870456824
O          -1.52629755842591    1.56583111956034   -0.54858943532930
O          -0.30995845114702    3.54947993668865   -1.28842137906421
H           0.04176764081971    4.22704710593072   -0.72046640495928
O          -1.07992656421436   -1.66189379106562    1.29278230695273
H          -1.49304057753348   -2.08014271723078    2.04941771094920
O           1.16299753392232   -2.41064199977573    0.03585875955643
H           1.44305320985870   -3.28668939181241    0.30257578469723
H           0.34202762478199   -2.20406499793095    0.54170078651391
O           2.33987608516790    0.02021604438326    1.03179550512693
H           1.98780102344690    0.66420348772230    0.39259971497182
H           2.15044784217258   -0.85188183063962    0.66139096441185
O          -2.22174795449066   -0.90643512730679   -1.08069290406316
H          -2.02459892206181   -1.28788467640211   -0.20597049733733
H          -2.23624660123209    0.06007607138553   -0.91838312005389
H          -0.81466310608369   -0.85273914415778   -1.69643856874681
O          -0.03444893805813    0.48991179945589    2.23621914657021
H          -0.74426101024999   -0.77301105008789    1.63201720115709
H           0.91607045077095    0.33818121837726    2.05274957700097
H          -0.20895606754027    1.38642869568571    1.89330355360308
N           0.23683815342765   -0.71087633215018   -1.90458506899118
H           0.49626172999966    0.23842890538914   -1.47194236135034
H           0.43642901293248   -0.71971451863227   -2.89803415037918
H           0.76020432919113   -1.44330916665344   -1.40256912349731
