    26
        -50.45023509  Gyration_radius:  2.51133822357 Dipole_moment: 0.808
 S          -0.79573350283314    1.87114805222967   -0.21476381054539
O          -0.07958548969166    2.17209633678699    1.00518270735883
O           0.04710564182600    1.46949124459905   -1.31916311621582
O          -1.87311133341328    0.90539865768178    0.02083953695573
O          -1.50241078614018    3.21692743601896   -0.65377579626466
H          -1.77359247764144    3.54575440486587    0.19607889625609
O           0.88555284990965   -1.58024716851583    1.56456897729241
H           1.15633961388042   -2.01460661804666    2.37495177051035
O           2.66806939898578    1.04086594809806   -1.11761831459632
H           3.12183057311049    1.84407778828569   -1.37702547853149
H           1.71431033006344    1.20720989582288   -1.27181623254283
O          -2.18998069932207   -2.36611080214750   -0.67223674793476
H          -2.85219012957021   -1.81216158748936   -1.09190393230398
H          -1.29695080260195   -2.08876834298715   -1.08077322482909
O           2.05579099727552    0.68550187544264    1.49175368007198
H           1.30189684706192    1.31043908861529    1.44111532808080
H           1.38067385328467   -0.69116085595091    1.54663962579573
H           2.48153221269954    0.74763184432733    0.61325717268245
O          -1.60521640892777   -1.11879693981064    1.41773623678449
H          -1.70514551798374   -0.19182523218084    0.93911549211844
H          -1.92194846335679   -1.76089193357829    0.64472172124602
H          -0.59184250191129   -1.29956937244680    1.51713030069043
N           0.10034739511960   -1.40736154484685   -1.45214775325163
H           0.52634964818108   -1.68312890896335   -2.32779906134372
H           0.76803330657795   -1.60781817847381   -0.71521189926596
H          -0.02012454458407   -0.39409509733587   -1.47885607821801
