    26
        -50.45023499  Gyration_radius:  2.51142146576 Dipole_moment: 0.808
 S          -0.93079885348400    1.55679877277575    0.94366255322769
O          -1.77973087219381    1.58750416020911   -0.22689892263255
O          -0.97928208423771    0.31618796419103    1.68513561509968
O           0.44678944025543    1.93620596889982    0.61639350838139
O          -1.47652721364639    2.68222968192415    1.91269083633131
H          -1.68726110129376    3.35783691531049    1.27790548843824
O           0.45717228010777   -1.00792256006857   -2.12216481462722
H           0.51167684412276   -1.17721525596884   -3.06403074975386
O          -2.28961123481874   -1.85650134123539    0.87485810522788
H          -1.80917542658030   -1.08785419139010    1.24820364229092
H          -3.15450903170147   -1.85361916804463    1.28747026940974
O           3.27793863474694    0.15925808427346    0.27791507142320
H           3.31536504529808    0.82610732519900    0.96743802677023
H           2.57199439682342   -0.51286128849576    0.58004827552570
O          -2.00903787155680   -0.69373313806508   -1.54993579016539
H          -2.02291267960379    0.20738187832818   -1.16364275858628
H          -0.53420752364670   -0.90821605217167   -1.91430784760494
H          -2.19384266282843   -1.28500711437195   -0.79291646074613
O           1.65286663726890    1.10210875931206   -1.37610127891577
H           1.06377915195377    1.52129686565693   -0.61748162688636
H           2.45587323098900    0.73178343828153   -0.80309765760443
H           1.15557071534374    0.26093420245494   -1.71451185034098
N           1.23728884594702   -1.33837798753800    0.88245531854549
H           0.52941071480348   -0.70289105061142    1.25261193265828
H           1.31415659747841   -2.11317049929802    1.52901917477039
H           0.87701400045625   -1.70826436955591    0.00928195976636
