    26
        -50.45023528  Gyration_radius:  2.51089003065 Dipole_moment: 0.807
 S          -1.06465779823264    1.74449887918501   -0.03306383453221
O          -1.89003181439424    0.56452968272665   -0.16493558312955
O          -0.51480371515000    1.94438036164308    1.28954873659957
O          -0.01887775807191    1.78993276940880   -1.05946300491153
O          -2.00531960820555    2.98587649868072   -0.31116339606379
H          -1.48329560319791    3.67860141357341    0.07791732946547
O           1.88591303184567   -1.12382231584430    0.95743364506374
H           2.68359142255190   -1.31589551560240    1.45299797660276
O          -2.19080430197944   -1.26831218005069    1.74414555211632
H          -2.98996388529074   -1.06238738010000    2.23119549915631
H          -2.14832049871400   -0.62177339767521    1.00851625305841
O           1.50184799733406   -0.58927556124438   -2.86936426051959
H           1.03388373263546    0.06450769288677   -3.39387484159890
H           0.78548877313038   -1.07604937431782   -2.32999577670442
O           2.17351519216460    0.67066569775061   -0.81344329598378
H           1.28462386799806    1.22578255613268   -0.81850163861226
H           2.08199179770446   -0.04023879838037   -0.06804138723350
H           2.06134487137695    0.13630367805667   -1.71458334989348
O           0.15627846908272   -0.24639804616394    2.61488444611818
H          -0.04962131432024    0.64068582180193    2.25139636161774
H          -0.65912336213736   -0.76530247002991    2.46433917145586
H           1.20554197430406   -0.79812806280807    1.64070405976463
N          -0.28218402317207   -1.56803430417099   -1.24634089339730
H          -0.89265000318255   -2.32839721514820   -1.51741968953383
H          -0.87607883899961   -0.78085180589879   -0.98280082637385
H           0.21171140491112   -1.86089859440483   -0.41008726253204
