    26
        -50.45023506  Gyration_radius:  2.5115147544 Dipole_moment: 0.809
 S          -1.40089686648033    1.48393783724748   -0.13327779040187
O          -0.33736676133230    2.25335505181057   -0.74030159012017
O          -1.75871802088709    0.28415509493114   -0.85705840023572
O          -1.11895726452571    1.19984041849495    1.27696931559399
O          -2.67969180812457    2.41547522043171   -0.14487675235250
H          -2.27666894183873    3.24990699357964    0.06733348067535
O           2.34486896223857   -0.47326546009417    0.10698552626562
H           3.29717959309143   -0.37956823864303    0.16249180077466
O          -0.13092951857745   -1.57707494113513    2.88861237293696
H          -0.26655347877391   -1.86147815548635    1.91816556856107
H          -0.97919885279165   -1.23630177058481    3.18154124533878
O          -0.43024156630405   -0.62775821878254   -2.97785799867053
H          -0.87278314200410   -0.30857381253197   -3.76561610277210
H          -0.98192143235569   -0.33702962175702   -2.22145552681873
O           1.57128524742810    0.85591630431218   -1.92836319798339
H           2.06239772404186    0.04482686543552   -0.72239968468983
H           1.00652764433314    0.25339793598759   -2.45272289058808
H           0.94252872466039    1.49768795501667   -1.53569896219659
O           1.09214210025446    0.46192720536391    2.10533333674016
H           0.69476207742971   -0.39958972047412    2.56300213978198
H           1.62951561352857    0.11051190295728    1.29455562826794
H           0.21371158216249    0.89091454091020    1.72740650699436
N          -0.39355400642415   -1.95899929521967    0.32739135140151
H          -0.96917483713730   -1.18602099864943   -0.00890756835646
H          -0.78572783486958   -2.81258299174302   -0.04938309731361
H           0.52746505325307   -1.84361009137918   -0.08186870083475
