    26
        -50.45023525  Gyration_radius:  2.51078750699 Dipole_moment: 0.806
 S          -0.17543759833508    0.98833528652856   -1.78046083813248
O          -0.67395993932116   -0.36825640309369   -1.82558989533407
O          -1.00566231797083    1.90543538174660   -1.03128275953749
O           1.21827735156145    1.03716277656425   -1.32840903416249
O          -0.17082994660472    1.51656038206069   -3.27178513279050
H          -0.12756121152332    2.45320569530413   -3.11462619714982
O          -0.10735445966440    0.22458013550205    2.38184136620266
H          -0.17946060515261    0.58802489113252    3.26582692473903
O          -2.78098951818697   -1.23146363798430   -0.44354416443396
H          -3.54875727189816   -1.19160408319394   -1.01560307070598
H          -2.01534321826421   -0.97762909417634   -1.00063842393339
O           3.07950271458391   -1.02534033812731    0.54886459421233
H           3.41868965178846   -0.88800516001605   -0.33862696043337
H           2.18357641967006   -1.49941565507620    0.43254912776581
O          -2.20806230563014    0.90881472845722    1.10610251341949
H          -1.83790653242629    1.40868577414104    0.34818191818215
H          -2.56641487089625    0.09142977443161    0.70570039315653
H          -0.96398688338077    0.49055431762600    1.90087633727158
O           1.86934483610774    1.10598946354118    1.05715153814387
H           1.54234928053486    1.19951227818055    0.06581233948563
H           1.05951828354639    0.78357095296248    1.61354886444996
H           2.49120812440702    0.26034044179079    0.96607850376942
N           0.65014325118209   -1.90169020255442    0.22371739074875
H           0.12123610751300   -1.60636744025576    1.03737042950999
H           0.45006455746827   -2.88241234532973    0.07405340838428
H           0.27781611089522   -1.39001790016737   -0.57710915282769
