    26
        -50.45114525  Gyration_radius:  2.59747296986 Dipole_moment: 3.642
 S          -0.56618619587386    1.51217091081010   -0.58895495242542
O          -1.31958292576882    1.30225729670321    0.61984114451853
O           0.91120056750338    1.22575635407183   -0.29071964703768
O          -0.99885081707579    0.75265554526320   -1.72680218370712
O          -0.57504037914675    3.00669740903356   -0.94090496542519
H          -0.35012448800987    3.45509001576895   -0.04904873017963
O           1.60743612451040   -2.14765617034140    1.07422788611302
H           2.27889677785070   -1.95944623898240    1.73031369010889
O          -1.21171921565667   -3.06537677374456   -0.01513123796675
H          -0.37185063193075   -3.46604063995663    0.22532069686549
H          -1.07302074052412   -2.66082040209258   -0.88608289880385
O          -0.53403999186499   -1.74082063461120   -2.37279267814498
H          -0.80949769589619   -1.90589103932224   -3.27598953617625
H          -0.82148380344088   -0.82485507331244   -2.15966337119366
O          -0.69076253713639   -1.06943540368858    1.77823388781498
H          -0.95700499868707   -0.20263805189591    1.42792971002804
H          -1.19231559812601   -1.73204898094014    1.26790378913407
H           0.77260776407169   -1.71875823718323    1.40202802049054
O           1.80225604072151   -0.89855071753111   -1.23828950877188
H           1.08087235575535   -1.28845317432530   -1.76669263841255
H           1.30892225244610    0.35291442339177   -0.74238336298269
H           1.83807562707802   -1.43475495680020   -0.40516195589551
N          -0.05766911060885    3.66938181263426    1.47979525266811
H           0.91684013484107    3.53489529630964    1.71397418250117
H          -0.57458535703716    2.83668924825763    1.74919704039324
H          -0.41337313798573    4.46703815246661    1.98985236648469
