    26
        -50.45114659  Gyration_radius:  2.59705994931 Dipole_moment: 3.629
 S          -0.84365703122784   -0.56159369073682    1.40010586122378
O          -0.02477741827982    0.73591495697400    1.38584860868246
O          -1.84411912793679   -0.47572082937250    0.36811822723898
O           0.02735141204331   -1.69910361927396    1.32228593099108
O          -1.52697266170799   -0.53450089925047    2.77457756841269
H          -2.18434976723998    0.24529939083949    2.68933827929142
O           1.51114690649044    1.56624314067032   -1.89388469347549
H           1.39178892952994    2.51535995099958   -1.93463893548718
O           1.11355595407901   -1.44633022773169   -2.74126952037458
H           1.46347436597033   -1.79161965436339   -1.90469919037869
H           1.67667034439388   -0.70332690426992   -2.97500333209477
O           2.10248733464461   -2.10712865272343   -0.22011990542229
H           2.57901575295460   -2.88814584140847    0.06605037419944
H           1.28856875008802   -2.06318387585623    0.33036347768639
O          -0.81802053841715    0.34214980951512   -2.00524301521189
H          -0.41105574704329   -0.45930845386371   -2.38353592810283
H          -1.25672560940302    0.05779040045113   -1.18542316447800
H           0.60038449712278    1.17044454065139   -1.94479191465385
O           2.26182910341554    0.54342938776675    0.41597209900024
H           0.96908513098073    0.64602183833630    1.02868625654163
H           2.39392979883315   -0.40132414735187    0.21232382432564
H           2.09860118916947    0.98166887217910   -0.45827385288450
N          -3.03440798282447    1.41791436681601    2.08135291803905
H          -4.00008057353795    1.57437397956964    2.33829243676929
H          -2.99155112381456    1.03343998591501    1.14147938642958
H          -2.54217188828302    2.30123616551680    2.09208818373304
