    26
        -50.45538151  Gyration_radius:  2.56578305256 Dipole_moment: 4.107
 S          -0.28042586660975   -0.06100769440751   -1.01186509581905
O          -0.49550896853395   -1.49672826178905   -0.84811743985050
O          -1.44297464718830    0.46146866365955   -1.88386209419692
O          -0.41802483183068    0.60112899254605    0.30905190549338
O           0.98103422829676    0.27400286711511   -1.62573749960189
O           2.06291927382834   -1.78508524409191   -0.22761162358314
H           1.15649714760085   -1.99260670773324   -0.51762965174159
H           2.24095990105673   -0.95641336006499   -0.69240430106758
O           1.69617769912931   -1.77069520898172    2.35888939744659
H           1.75478350246933   -2.69410052493891    2.61236960568887
H           1.94612367792979   -1.73267609830587    1.39417601283403
O          -1.92783127669229   -2.56024504832931    1.02443894962340
H          -1.42302063360839   -2.27568832383305    0.21842703961848
H          -2.85488433646745   -2.42054252457046    0.82291657417456
O          -0.64233917580020   -0.79072961267839    2.32196206334891
H           0.31241155250542   -1.17381426914463    2.43356740773851
H          -0.55644904922442   -0.12293039100325    1.47930386615036
H          -1.22188047947532   -1.54912277844282    1.95201923137313
O          -0.11519931211919    2.41342719560111   -2.82892304928326
H          -0.11114783215369    2.98606731292984   -2.02227523224405
H           0.64283896036098    1.82075336589489   -2.71222994301104
H          -1.06564046268748    1.27430892120643   -2.35366537201408
N          -0.06270601226452    3.39786845953681   -0.32632038133845
H           0.80904969446741    3.75737560412987    0.04186006419404
H          -0.17100886843647    2.44376558025926    0.01659112629368
H          -0.81375389450947    3.95221906548836    0.06506844980287
