    26
        -50.45114630  Gyration_radius:  2.59854948658 Dipole_moment: 3.651
 S          -0.78319322712230    0.42317538028284    1.47596162524322
O           0.20225012821680    1.45288194695591    1.27127543256650
O          -1.54723240731418    0.21904866135779    0.16115324293902
O          -0.27583424746924   -0.83081128079402    1.95445155521541
O          -1.86348303545289    0.93714034447935    2.43791311994969
H          -2.08204774044569    1.86503222894525    2.06506262234013
O           0.61243098784159   -0.56954185764520   -2.76584354560856
H           0.19729727031924   -0.06432068820618   -3.46522550755179
O           0.91087330162273   -2.76981728652588    0.65713231663204
H           0.54925398532318   -2.05390198182025    1.22633782272566
H           0.97717367796239   -3.54784166317635    1.21321277881698
O           2.88797222306138   -1.39715869260697   -0.74960334729312
H           2.29227290331363   -1.92615521333212   -0.19577228712263
H           2.63058458484220   -1.57674405285007   -1.65813348711081
O           1.67128656170208    1.04086560445770   -0.97131372411708
H           1.17836717733984    1.25874292719782   -0.16200671554830
H           2.32810841175535    0.36780710697670   -0.71315751933820
H           0.99171783625955    0.09565889525592   -2.13152564345568
O          -0.97151480549371   -1.85359646037830   -1.09566039469801
H          -1.34793230961077   -0.68926293381365   -0.34743148560615
H          -0.41644753705746   -1.45495766563409   -1.81387520754781
H          -0.34967307894560   -2.35230035829982   -0.53337289777974
N          -2.02497310790554    3.17611206612599    1.20280038847927
H          -1.03930905554834    3.05483510700492    0.98651775928106
H          -2.17208162612605    4.09200282678750    1.60593429442831
H          -2.55586688106554    3.10310702923475    0.34516877413248
