    26
        -50.45114594  Gyration_radius:  2.59706475631 Dipole_moment: 3.661
 S           1.10126155104426   -1.17946030741946   -0.60763504382036
O           0.45310077130983   -1.83049326238884    0.50102379009066
O           0.02245069681969   -0.51540280251712   -1.47349143380928
O           2.11337032449294   -0.22453479887830   -0.25759462460457
O           1.70174688377093   -2.24051865010880   -1.54058880859820
H           0.93527546448220   -2.90982046282072   -1.65095511896162
O          -2.17189806800494    1.87197429679537    0.33810781432233
H          -3.03041124864814    1.69009966356247   -0.04473631056978
O           0.01248566105363    2.02451770479401    2.59678437944402
H           0.74584551434334    2.13605213247692    1.97152904152356
H          -0.70960889752117    2.55741538145851    2.25255211776062
O           1.88474954877555    2.25720731362568    0.54301127310127
H           2.74007763844851    2.68986639803226    0.52912374044904
H           2.05021220570196    1.31149790146190    0.32976849379179
O          -1.32757627471547   -0.19675257830089    1.73316512157987
H          -0.78072720260952    0.37603143114668    2.30221672765175
H          -1.91828066116859    1.05746980890608    0.84865549676621
H          -0.71736263926820   -0.84084795876889    1.33557573104759
O          -0.10840036740672    1.96636337799594   -1.29971301397605
H           0.62703682997240    2.24038706295320   -0.72026045065311
H           0.00278480823815    0.54398938581936   -1.44726400319504
H          -0.92504065747814    2.04099472095222   -0.74281287704517
N          -0.44290599472757   -3.64001310219832   -1.46475796924733
H          -0.52409924582072   -4.64817494617922   -1.46054475682787
H          -1.16972434671886   -3.25212540271210   -2.05123579190651
H          -0.56436227434863   -3.28572231768317   -0.51992353430484
