    26
        -50.45114641  Gyration_radius:  2.59785470633 Dipole_moment: 3.644
 S          -0.48786871218484    0.26986019519667   -1.63255045784529
O          -1.68208547347297    0.46937401981296   -0.85339068635922
O           0.65650304541592    1.04581398000970   -0.96729725664498
O          -0.10601487321685   -1.09780639444427   -1.83830782105480
O          -0.64506565133839    0.96576319314366   -2.99197439139996
H          -1.00515453812148    1.88924214789361   -2.73754122588557
O           1.24374883299441    0.17469215083630    2.60113475144983
H           1.42997166815928    1.02957079639805    2.98997639456977
O          -0.35099304430455   -2.50113720924717    2.11567693277953
H           0.31410344475683   -2.15975235474120    2.71976853253243
H           0.11892508070969   -2.70542645576696    1.29182258771553
O           1.12923513117415   -2.75643316315114   -0.23377276314213
H           1.39871136523843   -3.54153124819990   -0.71328279095474
H           0.58993738747933   -2.22262283556071   -0.85930705840926
O           2.32109054171465   -0.34909190420900    0.25314014403662
H           2.03773504912504   -0.15607373640880    1.18329269219567
H           2.07055567737198   -1.27829676877224    0.09323860706370
H           1.39817135558790    0.45244189207571   -0.49702497279739
O          -1.26049749402480    0.05679933788542    1.79414782506553
H          -1.48219811383973    0.23271366272120    0.86401833712500
H          -1.27752637398600   -0.91296575390275    1.89555681551160
H           0.28900820170656    0.19840265802132    2.32453864359745
N          -1.57821307556988    3.08520467319267   -1.89528952345638
H          -2.30456052777168    3.69435458998993   -2.24777532101775
H          -0.85126850391790    3.64722135520902   -1.47305543082053
H          -1.96625039974536    2.46968318202983   -1.18574256385489
