    26
        -50.45114578  Gyration_radius:  2.59672856412 Dipole_moment: 3.636
 S          -1.29819752334128   -1.08100505543211   -0.34121841443373
O           0.08604826899831   -1.54967097641503    0.12589296407219
O          -1.82943870946299   -0.18330100075471    0.65123416342777
O          -1.22024815785839   -0.55350321943962   -1.67320465920403
O          -2.12587261733619   -2.37399789382208   -0.35229205920307
H          -2.19959714202911   -2.60930349388539    0.64103413483961
O           2.50564965083854    1.16684878753487    0.83429992674755
H           2.95266338013697    0.83799070856849    1.61452318996517
O           0.55218311153179    1.04788775113552   -2.74405675461665
H          -0.19583537620950    0.51480944058826   -2.39261274634839
H           0.43009722422527    1.08912676700294   -3.69400247914297
O           0.68851035681212    3.10163784697900   -0.86299120226407
H           1.60509840437605    3.03732725783928   -0.58087339963052
H           0.59096822350836    2.47055798492842   -1.59344728256920
O          -0.01672916821958    1.70018849484872    1.37565789585850
H          -0.05781695190917    2.36472103303617    0.66308820606754
H          -0.71074897892491    1.04938935475346    1.17554666550951
H           1.56771095347568    1.34896291346769    1.10908705589818
O           2.01887155127308   -0.56074895494025   -1.09597678130875
H           2.32989327954559    0.07495283450575   -0.40178139678125
H           0.90744448702852   -1.17740984529483   -0.43076200437351
H           1.64114754968294   -0.00682152976538   -1.80454940078883
N          -2.09647313793754   -2.51711373691443    2.20587584643057
H          -1.21216896541776   -2.85744304243980    2.55921113347278
H          -2.83964685238352   -2.83310128758298    2.81484251857704
H          -2.07351288033556   -1.50098113846569    2.19747488981139
