    26
        -50.45114608  Gyration_radius:  2.59772810279 Dipole_moment: 3.647
 S          -0.26694688758676    0.12347479362575   -1.69707281785786
O          -1.58753138364239    0.10343920480347   -1.12386439391492
O           0.58412988172562    1.12904015282837   -0.91065260815356
O           0.39821265428903   -1.14629090601615   -1.76086949519230
O          -0.33198641580731    0.73660047957972   -3.10309272381676
H          -0.89972049660903    1.57623218938539   -2.96185577784857
O           0.75469536621819    0.49063760476642    2.74384384755504
H           0.70643057649394    1.37709342459301    3.10248227587099
O           1.66663097702074   -2.47998769385343    0.10034828629089
H           1.13903980737869   -2.08145155343990   -0.62767173354527
H           2.15154563379926   -3.21027143474522   -0.28756487996346
O          -0.19178216217409   -2.46538426971837    2.17835952020592
H           0.43580419691440   -2.59177177276193    1.44926383347146
H           0.28776719299183   -1.98264674265087    2.85717316156814
O          -1.51682345589390   -0.15148877258535    1.57578340068871
H          -1.36060841943177   -1.10195006520449    1.72814129361862
H          -0.12958040551662    0.31329454679865    2.32523238278356
H          -1.61925029520950   -0.04700581623880    0.61461608720356
O           2.27537885190079    0.13012367489843    0.62162728407307
H           1.81498867196269    0.28662906177864    1.48561439504881
H           2.23980485981531   -0.83426958250847    0.47938419230787
H           1.34402724596591    0.70918416979306   -0.30243739180710
N          -1.82127287735953    2.65703200730497   -2.29053232545583
H          -2.19221111424480    1.99676946049718   -1.61267871157261
H          -2.58521328147080    3.09686913200545   -2.78641707611598
H          -1.29552872153086    3.36609873706840   -1.79716003543651
