    26
        -50.45469717  Gyration_radius:  2.5099356448 Dipole_moment: 5.574
 S          -0.81281610902496    0.93960860400904    1.82993449429070
O           0.46322923591976    1.54451345900840    1.20177274633254
O          -1.12031973215464   -0.29676152545426    1.13138176179265
O          -0.60787103508511    0.82001183747518    3.22989927197867
O          -1.91050779014722    1.96036206283128    1.51751012182617
H          -1.99525424275070    2.02585862198349    0.47365260869779
O           2.46170635981310   -1.17647314950618   -0.05861326686895
H           3.39785858334220   -1.24196995352290    0.13518660087155
O          -1.18162959267730   -0.76196264952818   -1.48617074868345
H          -1.31735682766506   -0.74702862686822   -0.51880476002233
H          -0.69436539682517   -1.58854523751902   -1.65666254082381
O           0.74876197228475   -2.68874808765456   -1.65323913629686
H           1.38151165380541   -2.25972255809538   -1.05211377937698
H           1.24376193723092   -2.96918861375735   -2.42391643070771
O           0.92589948909638    0.80348847813499   -1.17094382419592
H           0.14231038276573    0.24484964221693   -1.41378032016730
H           0.62433017819699    1.28697487016591    0.21787669486794
H           1.62479981573680    0.16726232709590   -0.93540805792639
O           1.11143347412305   -1.25856185249418    2.23328649247290
H           1.09489308076761   -0.61236745779617    2.94615809610097
H           0.21626642190085   -1.21608157944948    1.85760679066696
H           2.00010011469765   -1.20378006056192    0.81470306590163
N          -1.96460015168717    2.06054661814441   -1.04151285412702
H          -2.72363679067201    2.60325530897784   -1.43191532434910
H          -2.02409997575705    1.10991820622698   -1.39445032092433
H          -1.08440506523821    2.45454130593372   -1.35143739133711
