    26
        -50.45114587  Gyration_radius:  2.59763386342 Dipole_moment: 3.650
 S          -0.27840200910143   -0.14286884834233   -1.69276006178314
O           1.11048753655774    0.10882639427210   -1.09160733171799
O          -0.79403865024100   -1.36873269336793   -1.14114755417378
O          -1.11142610832352    1.01213454750410   -1.51743690994960
O           0.01195335869069   -0.34009875773496   -3.18748336237848
H           0.52155736034743   -1.22719019555988   -3.20763094653365
O           1.19940590473181    0.21594611216689    2.61851288661144
H           2.01517570533086   -0.24640181447778    2.81215039218884
O          -1.91477253872685    0.71100820568280    2.58587230983645
H          -1.86106669951823    1.39377467863706    1.89859920669493
H          -1.16837688345122    0.86766541616513    3.17081618106657
O          -1.42536807727753    2.56740363817407    0.56435619991637
H          -1.91254508458060    3.35559704150257    0.31863259325152
H          -1.42515608458221    1.98489818169900   -0.22805296143850
O           1.22715142172644    1.92333094439362    0.61096703257176
H           1.29541549376070    1.36604333754505    1.42810432703285
H           1.17567879871887    0.91887241807450   -0.41066646841790
H           0.33928444231919    2.32607250778974    0.64492258171111
O          -0.56202404823632   -1.43225556650474    1.56104120248402
H           0.58362925248953   -0.46067031024512    2.22927458233714
H          -1.30608006187887   -0.89071755578400    1.88372977551520
H          -0.66687028344729   -1.48491304895484    0.59593054004070
N           1.17005599440266   -2.58457124851366   -2.75380171832600
H           2.10645700970166   -2.46702245999401   -2.39052265916243
H           1.14075425922603   -3.41555522727510   -3.32963791257863
H           0.52912001135139   -2.69057567682335   -1.97216192479621
