    26
        -50.45469721  Gyration_radius:  2.50994566473 Dipole_moment: 5.575
 S           0.18260372101248    1.77407491710584   -1.30836484395519
O           0.05776430517198    0.35210719636667   -1.58026173706164
O           0.41102739311725    1.95689627992826    0.20907086024101
O           1.22603821384354    2.44335755219384   -2.00085932017150
O          -1.17088877622770    2.44003959970407   -1.57152079497885
H          -1.89356629894615    1.92180227045899   -1.01428825857849
O           2.11247936435384   -0.97587874538199    1.42573815676332
H           2.89058716246629   -0.90994550402883    1.98105249185317
O          -1.39107470998629   -1.46984639635423   -0.29503838263398
H          -0.82492467257124   -2.24675787365242   -0.13458156819779
H          -0.89728768593942   -0.93055052209421   -0.94303202142817
O           0.60375966139026   -3.14199945085485    0.53521287020231
H           1.22212730182886   -2.44371627749126    0.81065080789588
H           0.57965844830382   -3.78735416289031    1.24282639341428
O           2.63500206925279    0.18555988621896   -0.91108950711563
H           1.78236805195252    0.00278162469187   -1.34001425924571
H           2.79470189057910    1.11575433996398   -1.09903686453165
H           2.34566711459547   -0.52939476253835    0.57559383467603
O          -0.42232539464881    0.04743728850246    1.64136568324065
H           0.02387252907366    1.20635352419980    0.79838863918073
H          -0.86905213475289   -0.56588571200450    1.00146304829876
H           0.45613293093634   -0.34457005298368    1.79380694574216
N          -2.81430167430690    1.12182726308121   -0.11458306747234
H          -2.67662578589261    0.13231730940369   -0.29828065486868
H          -3.78937863718844    1.34929497344491   -0.25815467267424
H          -2.57436437770537    1.29629544503327    0.85393624145216
