    26
        -50.46272398  Gyration_radius:  2.48115005649 Dipole_moment: 6.096
 S          -1.65344102485733    1.65253448155430   -0.04794649405016
O          -1.09890577597189    1.49808814912687    1.27444704787486
O          -0.61624892863211    1.39998377490236   -1.06723904017436
O          -2.87491158047504    0.93319803624498   -0.30325897924519
O          -2.02641733615308    3.19328396535484   -0.21895621485066
H          -2.86392944893830    3.12613558500689   -0.66558863633846
O           0.35917709505778   -1.94800033805976    1.29418613855384
H           0.16593073182517   -2.76910106264692    1.74867587318951
O          -0.31898755322265   -0.98418363563023   -2.34011805537771
H          -0.48085770289962   -0.06087107080859   -2.07834155689046
H           0.56102891099168   -1.20380276273981   -2.00690913098345
O           2.02122191342808   -1.57658246567535   -0.77265122858171
H           1.43778353137725   -1.78964892736596   -0.00672344041621
H           2.57952928803171   -2.34047787507905   -0.92029259866636
O           1.05816931782412    0.47666829292419    2.36173441516396
H           1.58699493085876    0.88964785444488    0.97916368986461
H           0.20291438193387    0.93416108264855    2.22054574585030
H           0.85014997258677   -0.46236965987763    2.20535076029931
O          -1.74960778870070   -1.47090090963300   -0.09847272945439
H          -2.26454393522495   -0.64327076412336   -0.05827711998905
H          -1.38727170432052   -1.49020106909952   -1.00872040183972
H          -0.49439500033571   -1.70346280186206    0.81526171236114
N           1.74920688206807    1.06036846392700   -0.07615776003039
H           2.38919919588053    1.82710280032493   -0.24750481459362
H           0.78057276961978    1.27220969441984   -0.49147695916501
H           2.08763883824773    0.17949117172232   -0.49073022251068
