    26
        -50.45469723  Gyration_radius:  2.51004713202 Dipole_moment: 5.575
 S          -2.04649064357117   -0.29908992385880   -0.78458779418926
O          -1.83640445879797    0.74867470184922    0.33198966618839
O          -0.80080384541850   -1.02492872203341   -0.96587377988798
O          -3.17591221427956   -1.09082985973977   -0.44708689826818
O          -2.31128386726017    0.53362818611246   -2.04194129926979
H          -1.45666733078791    1.11497034665157   -2.22369213534684
O           0.65355928074643   -0.54006608907825    2.59439673733114
H           0.51819685005048   -0.53901547218893    3.54301307515171
O           1.67127742481023   -0.06763507596206   -1.17745069048600
H           2.24785019727181   -0.58894511731611   -0.58952533154185
H           0.84140930305599   -0.58022096044147   -1.23210911054390
O           2.81618516765954   -1.26555677800634    0.99488669286171
H           2.07523198020931   -1.11239850258290    1.60591186630577
H           3.61561168501456   -1.01311512102381    1.45830359819257
O           0.56886076053455    1.43703705552059    0.69662256517990
H           0.69865048559639    0.89979980277453    1.49863231723778
H           1.07322639515185    0.96234165792238   -0.01429295503526
H          -0.86492000194438    1.07091711583163    0.44552173870265
O          -1.24411575468860   -2.02679703335920    1.46680029936837
H          -2.19028212484850   -1.85854531841631    1.41623586311738
H          -0.94233254498791   -1.94585334494307    0.54664339455396
H          -0.07189441691930   -1.09428545398358    2.21620134921718
N          -0.18559541052574    1.93389058031715   -2.32775232581548
H          -0.13424599724924    2.46077321348754   -3.18968611724859
H           0.61406445696188    1.30968760047436   -2.27543413581528
H          -0.13317538576208    2.57556251197178   -1.54572660996170
