    26
        -50.45469731  Gyration_radius:  2.51010368065 Dipole_moment: 5.580
 S          -0.56208197939955    1.85751606895766   -1.06250327028479
O           0.65295385945312    1.89885561796502   -0.10827072381670
O          -1.21422368792520    0.56788568699685   -0.91115438972957
O          -1.37467787056271    2.99196989738014   -0.79996523599415
O           0.05254033386291    1.93013658685482   -2.46300136887581
H           0.66085808996429    1.08389424808051   -2.58723408650447
O          -0.09726060226356   -0.20311058585924    2.71920044680385
H           0.03560654938251    0.09939584238443    3.61868164689377
O          -0.89279792768405   -2.64880021445154    1.64826368269105
H          -0.51148943010887   -3.33915581642519    2.19212317329963
H          -0.70520596627710   -1.80383600818612    2.09177710207987
O          -0.12187007449574   -1.85607015023788   -0.85026280542873
H          -0.50574165713692   -2.34143681508995   -0.09729826942672
H          -0.69597316676131   -1.07356346131856   -0.96214189807214
O           1.56271005882073   -0.36869482010175    0.54302038597662
H           1.05891023447453    0.97921665580268    0.11477936980010
H           1.16294042393678   -0.37731012871252    1.43112105472207
H           1.02462080059785   -1.01313604966646    0.01363434850580
O          -1.86982869530345    1.39394186074248    1.53960971439019
H          -1.78000381661682    2.32249735362524    1.30346604705280
H          -1.90614806209624    0.93663835879849    0.68290947818580
H          -0.75309616307396    0.41717632939688    2.31724205291657
N           1.54522968263135   -0.14648919774464   -2.60344869856955
H           2.29812031966755   -0.02910937290064   -1.93604577581534
H           1.94035656807547   -0.32695110607548   -3.51689998409566
H           0.99555215883552   -0.95146078021471   -2.31760196670274
