    26
        -50.45942976  Gyration_radius:  2.42426714447 Dipole_moment: 1.895
 S          -1.24586642606277    1.32649659196688   -0.49769520289858
O          -1.78378680895766    1.05613375820803   -1.82662110899993
O          -1.54616092939820    0.28736317137579    0.46110305994433
O           0.17690337351228    1.63074269419174   -0.55876133779419
O          -1.97450690836233    2.63045905038176    0.00975943089414
H          -1.91877496300022    3.18895242951578   -0.75822437084657
O           1.92349107641734   -1.55592056329839    0.07359354791783
H           2.64913454995962   -2.08409629096182    0.40678299367693
O          -0.63261622761695   -1.00252526175887   -2.66939741009040
H           0.35632767447518   -0.62676878287360   -2.60607808632226
H          -1.20553016051347   -0.17305374858181   -2.45273767052440
O           1.58537927908464    0.00408483566944   -2.11724396672048
H           1.92009420967058   -0.60620290169967   -1.42938842716350
H           1.20279864989241    0.75773665579281   -1.61717118800752
O          -0.68918637000378   -2.06215318155790   -0.40469671588686
H          -1.10204404797436   -1.29211976638352    0.04335551344497
H          -0.71761007355638   -1.59688339823294   -1.79811381938596
H           0.25636417463330   -2.04144771837560   -0.14959990665985
O           1.65064160349523    0.58798837430542    1.46771844065201
H           0.99498571560436    0.44027773827907    2.18783944560528
H           1.86080692810733   -0.74513178710324    0.67377651675253
H           1.17696598929582    1.11506347393647    0.79947630503545
N          -0.46653204597122    0.20765969667149    3.12854828786223
H          -1.04779735907393    0.23465767296487    2.29190727730676
H          -0.75311196111510    0.97376427254187    3.72468315567071
H          -0.67036893255218   -0.65507702501386    3.61718523646897
