    26
        -50.46824850  Gyration_radius:  2.38811276782 Dipole_moment: 4.293
 S           0.40976488918808   -0.77336998666300   -0.95202628019257
O          -0.20439561426385   -1.01539343446323    0.47718726517674
O           1.82735956477565   -1.01459983040316   -0.87676367333166
O          -0.32755762838768   -1.68593587058322   -1.81545739504327
O           0.08184350718524    0.62198952002515   -1.28062487549907
O           2.90082896040810   -1.43618080956723    1.53645069071532
H           2.93812026633654   -2.37858075382972    1.70286857244955
H           2.60099117999683   -1.33591367506813    0.60949505740728
O           2.27751216425799    1.69485585557021   -0.20783231564268
H           2.96305079839662    1.05747745389350   -0.42757725632617
H           1.51433595154355    1.44004968717683   -0.75987467521991
O          -1.23381387144379    1.83533059080065    0.73425116091473
H          -0.62229880862570    1.82332779608665    1.47705500724595
H          -0.71701116929494    1.51798815140480   -0.03257667292069
O          -2.88070188965664   -0.23212649621434    0.70329714693886
H          -2.75959159372578   -0.24737584167344   -0.84544503588932
H          -2.21037602898611   -0.88245451761799    0.95075689654595
H          -2.44043409045925    0.63831066818968    0.86744284251055
O           1.16534562981763    0.58440659690645    1.93256670306489
H           1.84553133952870   -0.06905915285877    2.17561172704812
H           1.61515721823859    1.15043030661977    1.25700761339964
H           0.29471548352745   -0.39813174753502    1.10960199233910
N          -2.39980678252199   -0.22311663992914   -1.86200575110626
H          -1.60591150987372   -0.97065206984876   -1.92654261785397
H          -1.89692613095861    0.65718825102297   -1.99930690013596
H          -3.13573183500715   -0.35846404143572   -2.54755921659321
