    26
        -50.46272416  Gyration_radius:  2.48155796002 Dipole_moment: 6.104
 S           2.09749911185227   -0.03629910998047    1.03448205785054
O           0.82776669497709   -0.56122470622722    1.57387564264114
O           2.20182968485932   -0.33608142457637   -0.37242288496478
O           2.33504855013366    1.33614572688035    1.40180463764837
O           3.23323543720003   -0.87510685037666    1.77491847456508
H           3.54268252364469   -0.23532114328784    2.40749390841776
O          -0.90429270427304    1.12911839066256   -1.87075319846972
H          -1.09859698565693    1.84428185005567   -2.47809579000032
O          -1.39770527203157    0.96328453729734    1.91253302025718
H          -1.97097744060308    0.50359556540285    1.28513210015220
H          -0.60244542515993    0.40945879146673    2.00297061507927
O          -2.63696788272348   -0.26428597090584   -0.37826565652418
H          -3.54273851201162   -0.10563035680820   -0.64563195266429
H          -2.06324747941826    0.28391564448605   -0.96375452202124
O           0.60766695163819   -1.11433422112179   -2.30427091691785
H           1.39464460941825   -0.84713804931887   -1.78461367095118
H          -0.06708978455250   -1.75937896962812   -1.08361607563541
H           0.09074539359308   -0.29234213487842   -2.38627746884274
O           0.18024661909201    2.28025136973551    0.15657026024618
H          -0.45410043159798    2.05382049980122    0.86827234803900
H           1.05271994966063    2.04258764275152    0.52309208827456
H          -0.39761590843281    1.55757441487096   -1.11052023828011
N          -0.51446614287003   -1.97889862071000   -0.12399787722600
H          -0.52764732708430   -2.97216192684187    0.07617592060135
H          -1.46266805390062   -1.57457119046357   -0.11745973481028
H           0.07647382424682   -1.45125976828538    0.60235893353559
