    26
        -50.45469725  Gyration_radius:  2.51004905077 Dipole_moment: 5.579
 S          -2.06886784770948   -0.40486655072213   -0.67136218824232
O          -1.86551924481881    0.30443449845544    0.68656019431198
O          -0.76838683322569   -0.83071599080106   -1.16014654289158
O          -3.02811599259326   -1.43707737164016   -0.49656239813158
O          -2.60052178002938    0.69261815446901   -1.59725440457521
H          -1.86278572329169    1.43610351239675   -1.66566945492332
O           1.04322488296350   -1.13180466547700    2.25353903423226
H           1.03231129345981   -1.42373552162543    3.16613713958863
O           1.50261723083718    0.54799144371134   -1.27393777570850
H           2.21474491966884   -0.01343195794674   -0.91682180746214
H           0.75040820394825   -0.05997942589337   -1.41196908009625
O           3.06597659411345   -1.00359197697208    0.34254398347312
H           3.87477112020425   -0.76012130637867    0.79450594358039
H           2.39350616544821   -1.15529483880595    1.02859277998575
O          -0.76120154419916   -2.53626207229109    0.89149081982767
H          -0.59221065405646   -2.15013222881885    0.01589067505511
H           0.35805387082096   -1.66984361134568    1.78720301837343
H          -1.72014367273540   -2.52213943241548    0.97028524561821
O           0.44896222933775    1.25720011122419    1.04510463594429
H           0.92017677466564    1.09323572208134    0.18707133672111
H          -0.94123428675113    0.74056284683252    0.81248716681161
H           0.75143411782039    0.54626151572868    1.63802477092850
N          -0.73921741371730    2.45183882208066   -1.62244195269580
H          -0.86923850119216    3.20154292633974   -2.28882592634514
H           0.13845158443428    1.98154870734561   -1.82314146121740
H          -0.67719548340321    2.84565871045656   -0.69130373215251
