    26
        -50.46220841  Gyration_radius:  2.4224718312 Dipole_moment: 2.970
 S          -1.19639008615020    0.29034083671269   -0.24877385263497
O          -0.40840544600880    0.72029275114839   -1.39560387797100
O          -0.79609172527724   -1.06303316758875    0.16344540406602
O          -1.08324347030419    1.22062886528204    0.86645450410505
O          -2.68672730212281    0.23737759454532   -0.65187758103846
H          -2.67095117595944   -0.30409453851959   -1.49322309460177
O          -0.13745037462474    0.91409218528286    3.29734105831963
H          -0.67935449226515    1.10710950519889    2.50038641343978
O           2.61083478569002   -0.11475692538552    0.78528004999731
H           2.42808189413319   -0.52178933643523   -0.09953298634714
H           2.28914927484171    0.81798163380398    0.70273268684623
O           1.51794992273250   -1.09029577258271   -1.40940482964764
H           0.87175975758035   -0.35863497603001   -1.51555898788546
H           0.99726314448764   -1.81170138321068   -1.04330312326243
O           0.79126407579954   -1.15063505843656    2.10392387833834
H           0.08357196139655   -1.20306904433849    1.34912715481408
H           1.67485655307710   -0.73815072949283    1.59091995055101
H           0.45651255901130   -0.41444646595168    2.72436124341165
O           1.34108611220942    2.17435652232779    0.39396889642912
H           0.49029058752533    1.63753704086206    3.37036980372316
H           1.35619706989631    2.33242269929678   -0.55328644423409
H           0.41072778998597    1.93236523124027    0.58394797553484
N          -2.08330103147718   -1.07361229480068   -2.82118758978074
H          -1.25448965973057   -0.48615985521604   -2.81949532293583
H          -2.52204585895127   -1.02454304302700   -3.73137429117445
H          -1.80109485547837   -2.02958228471004   -2.64963704808960
