    26
        -50.45942971  Gyration_radius:  2.42427195935 Dipole_moment: 1.897
 S          -1.65668814199118    0.89848385498996    0.07960399802629
O          -1.53802408869393   -0.54038650958274    0.15039386797826
O          -1.84118095030377    1.52557531593302    1.38394926850381
O          -0.55282526213220    1.51096501176557   -0.64613980540241
O          -2.97095078460033    1.20117203644969   -0.73859101913836
H          -3.09903786012167    2.12562637402368   -0.55519213707730
O           2.40806045783479   -0.57057163509067    0.06920638902278
H           3.25200125304635   -0.96488866365541   -0.15168883109269
O           1.63102521754464    1.91855052833655    0.81120496792776
H           0.88092057708929    1.95729977827201    0.17853445560388
H           2.13166789623462    1.11800628493782    0.55430046978063
O           0.23850193549972    1.07454637589666    2.70515650744583
H          -0.68010565733316    1.31498146927837    2.30340910224194
H           0.91553596924104    1.53276034309805    2.03098785512782
O           0.98769084298793   -0.22937852758059   -2.04761245918272
H           1.89759179999251   -0.48283075590204   -0.79862868725055
H           0.40053693518655   -1.00750381736431   -2.18913656282231
H           0.40345246529518    0.46732625656805   -1.69835250081484
O           0.42536646869003   -1.24140173242426    1.78043905128752
H          -0.35267358957520   -1.16284115327224    1.18660435034458
H           1.21068354280086   -1.16303064906370    1.20011882911728
H           0.34368777270366    0.04458803094195    2.48501784950983
N          -0.87585435040821   -2.20696478769899   -2.10138766803165
H          -0.70335477811693   -3.17176373251858   -1.84830190995547
H          -1.55921736640911   -2.20239868252342   -2.84800078555511
H          -1.29681028437525   -1.74592101388895   -1.29589459570182
