    26
        -50.46220845  Gyration_radius:  2.42262499013 Dipole_moment: 2.970
 S          -0.61054905169901    1.08451762825389    0.16255783309002
O           0.57007228828533    0.98108356200671   -0.70763790582391
O          -1.60586600530966    0.09281683872626   -0.22054242591137
O          -0.22873733268552    0.95690280194434    1.56253937167634
O          -1.20839928147220    2.49694077380976   -0.02226471593591
H          -1.56591393884690    2.46703938046655   -0.95650143531753
O           2.07773462040628    0.40753514881473    2.69148512335346
H           1.22040993993436    0.79739256963372    2.40998108396433
O           1.22972049479488   -2.42794525191520    0.20608645733124
H           0.56675885037612   -2.28640550740620    0.92761325205228
H           0.71921813145775   -2.29428026190264   -0.63264667294439
O          -0.18853304464880   -1.47800430678779   -1.80618905868210
H           0.40536356839638   -0.79714034560865   -2.13683098838842
H          -0.82306006520015   -0.98731096445076   -1.23987949600552
O           2.49278076394327   -0.30091313922474    0.26758835805386
H           2.03237032199740   -1.30115288129375    0.24048266916956
H           1.77510495282381    0.30085300196651   -0.17575224162699
H           2.49920779024446   -0.01993721060326    1.24735153515736
O          -0.64789814849412   -1.63621968286555    1.89550808850905
H          -1.48882640923350   -1.80138209182211    1.46179925550156
H           1.85603437680026   -0.31884560252570    3.27958917200574
H          -0.55095278875577   -0.66142304203530    1.87256817476602
N          -2.06436550473274    1.85535114200946   -2.39781359885286
H          -2.22519427246586    0.94421189305900   -1.97828142677103
H          -1.32770992379903    1.76841764232169   -3.08527851273889
H          -2.90877032217746    2.15789792536789   -2.86553190564540
