    26
        -50.46220854  Gyration_radius:  2.42270545569 Dipole_moment: 2.970
 S          -0.59052897136107    0.02053580314350   -1.10733579920652
O           0.80176440237696   -0.31085945806048   -1.37674371803056
O          -1.09153420161151   -0.77334269276954    0.02424736989631
O          -0.76984591882242    1.44390072909114   -0.85472170204383
O          -1.44283116339587   -0.33594967125965   -2.34550786867400
H          -1.17012813780283   -1.27890672327904   -2.53985307670087
O          -1.61662174553684    2.74068538682169    1.26622810821892
H          -1.46605740961660    2.37795293212526    0.36516652731377
O           1.36098930255431    0.51138639891715    2.30939666331963
H           1.57260316090459   -0.36142327930265    1.89044572839799
H           1.55913244937926    1.18050520769840    1.60706323981579
O           1.44566763314253   -1.65571556617402    0.80660947674006
H           1.34413385274637   -1.17495971076296   -0.04347753652784
H           0.57206308296007   -2.02231279942314    0.97407795943236
O          -1.11055492806452    0.42381413320877    2.22846418004110
H          -1.20273399733920   -0.11410490276974    1.34777664064775
H          -0.02026135966159    0.47349742423765    2.37855277357417
H          -1.40507678563139    1.36964075827772    1.98833628462500
O           1.61398590789895    2.01529064316686    0.14596761789157
H           0.74478161331006    1.89836909396806   -0.29104463357710
H          -0.91870299454540    3.38467813443505    1.41078873544009
H           2.23282501875431    1.55939354829128   -0.42998790089057
N          -0.30370198737381   -2.67450964576857   -2.49296228280816
H          -0.58831483099403   -3.31081348493143   -1.76018366071883
H           0.52403008414524   -2.17342324555707   -2.18327104526259
H          -0.07508207638491   -3.21332902332280   -3.31803205094228
