    26
        -50.46220850  Gyration_radius:  2.4226607269 Dipole_moment: 2.972
 S           0.49084774861587    0.46121643871881   -1.05930799321691
O           1.33645946503901    0.00472020499650    0.05348424516939
O          -0.44061535971835   -0.58912746417094   -1.44671133166989
O          -0.19905738229353    1.69476364581142   -0.70666805310998
O           1.41716659560276    0.77990150884014   -2.25372281052760
H           1.75022201644405   -0.12387793247619   -2.52513036783825
O          -0.31193210958435    3.03953145338463    1.54617278560910
H          -0.20348419353553    2.74125689773415    0.61588105232533
O          -1.45371421482201   -0.58787746807239    2.23415226114393
H          -1.10729904022029   -1.37861486865884    1.74757253078072
H          -1.98943396684060   -0.09594638516642    1.56239875583520
O          -0.22483021235219   -2.25277733663539    0.59676252351420
H          -0.40453418636000   -1.72586464173326   -0.21207684199071
H           0.69453183467726   -2.05878054094127    0.80327932135876
O           0.60582389270434    0.78070874249910    2.32412397960815
H          -0.31165585068935    0.17546248413158    2.39904185602064
H           1.01345941902203    0.47991840344337    1.42035008938882
H           0.29900710752053    1.73958747503377    2.16514790219277
O          -2.48885059834924    0.68345169375432    0.15610379232371
H          -1.25722655440245    3.14467348973925    1.68044081904870
H          -1.70587365689601    1.13328190017415   -0.22449768484197
H          -2.71185451844686    0.00847011428742   -0.48980017960647
N           1.86007713547573   -1.76027306352952   -2.62654685041029
H           2.44776812643631   -2.17818621343987   -1.91748649178003
H           2.00553342182723   -2.25256827042648   -3.49817296852040
H           0.88946509109089   -1.86305024729150   -2.34479033093553
