    26
        -50.45942936  Gyration_radius:  2.42442332025 Dipole_moment: 1.888
 S          -1.08698826247109    1.50701493356767   -0.33631358629486
O          -1.33213932750711    1.65602211695191   -1.76694832212671
O          -1.60515839497520    0.27107063528782    0.20534190687331
O           0.32103018839452    1.70332673112926   -0.02137980340409
O          -1.88411365639767    2.67412858664484    0.36438307996889
H          -1.66704009314723    3.41270105583689   -0.19419017673239
O           1.83696061999938   -1.65896769114373    0.01007329198715
H           2.46572986555820   -2.31266711824752    0.31635025907325
O          -0.06514602239029   -0.17521108696051   -2.91304922652619
H           0.89383565217234    0.09079035089025   -2.54950175605376
H          -0.65605216424799    0.60495476445153   -2.58776935381675
O           2.00158117643885    0.46593457941256   -1.66549736888024
H           2.17141697695108   -0.33414102909986   -1.12835980509946
H           1.53406336147971    1.07964321931543   -1.05785717054641
O           1.30911541840783    0.03162116358705    1.87498808533376
H           1.66168000908897   -1.04266391006693    0.79164760406626
H           0.99839993677284    0.75771742100618    1.30494302445504
H           0.51187915734832   -0.25941675202481    2.37499662695980
O          -0.62252841444717   -1.80901909828605   -1.10342758445402
H           0.24699740453925   -1.93252140759663   -0.66958498967593
H          -1.10815343154459   -1.16237942321793   -0.54656106030928
H          -0.34460717393493   -0.97777792034213   -2.28262904238144
N          -1.12008032448854   -0.63392044516507    2.89539358604915
H          -1.50956353421345   -0.32869368364477    2.00455056975588
H          -1.51466483316112   -0.04655574152203    3.61904601839501
H          -1.43645412416471   -1.58099023078182    3.06135520337291
