    26
        -50.45942981  Gyration_radius:  2.42423290981 Dipole_moment: 1.898
 S           0.63233475274450    1.60727136532509   -0.76127531218994
O          -0.37487976530250    2.65771972816607   -0.65769096703332
O           1.08010489345340    1.11829120784799    0.52312741055544
O           0.18402586419826    0.53463711674245   -1.63809746537018
O           1.88583296744710    2.27241837358650   -1.45032811237119
H           1.47802583814360    2.74952247107151   -2.16495089984315
O          -1.33183252765285   -2.00932767118188    0.55963774455377
H          -1.55670739486738   -2.90694380732556    0.80506992437681
O          -2.32618758889683   -0.23991032649929   -1.23857892374197
H          -2.15247393033957   -1.01442935663314   -0.66652949850347
H          -1.44610470828981    0.00792734003937   -1.59682940733017
O          -2.38765546727182    1.62745776194065    0.41958915737745
H          -2.54229314314537    0.87016205560170   -0.30468166928740
H          -1.63672475158895    2.19496108545758   -0.00143916846780
O           0.84481703863182   -1.96410844429821   -0.80982239551968
H          -0.46440762006269   -2.06274573737441    0.04382204421174
H           0.70213374393988   -1.10549358312544   -1.24702977044855
H           1.61468315779794   -1.82122373871164   -0.21217925640309
O          -0.96853855750218    0.26973350517499    1.96724502498662
H          -1.10305578551736   -0.63627441067549    1.61960627855575
H          -0.11305199145696    0.57374370255362    1.59312052425744
H          -1.89839538829762    1.11110264561537    1.20365695254544
N           2.82722342897989   -1.14456543424952    0.85888317490415
H           3.75731339586053   -1.02293761163470    0.47860367869748
H           2.92505646593458   -1.43356339974323    1.82406769928340
H           2.37075707306371   -0.23342484764050    0.85300322220894
