    26
        -50.46220852  Gyration_radius:  2.42257487257 Dipole_moment: 2.967
 S          -0.44715460033513   -0.91267725587520    0.73690567230614
O          -1.59669597137705   -0.17288454681746    0.23465846261555
O           0.49510984114225   -1.19052947771598   -0.35701847709243
O           0.22022607207879   -0.20614475759797    1.82198028057282
O          -0.92686284200241   -2.26896825430487    1.29992737646136
H          -1.48425753985590   -2.63532926808048    0.55402576896116
O           2.65140248860205    0.76544117017492    2.02775594074082
H           1.79727209031111    0.29441327732829    2.14946622248671
O           0.99537727783533    2.28246476219547   -1.11589741979328
H           0.32785385426146    1.80772300868682   -1.67367158933270
H           0.52632934767923    2.46157271602706   -0.26257689638167
O          -0.73039879887396    0.57465458652906   -2.14881038871249
H          -0.15906496403065   -0.18381411358256   -2.30347108861356
H          -1.17141023376701    0.37172011668086   -1.29533738251651
O           2.44773926261165    0.37821195871331   -0.49381982392999
H           1.89445206425240    1.27436093602712   -0.81739005824609
H           2.69850826925745    0.53874925336743    0.48099524204109
H           1.71411392274896   -0.35264929220458   -0.46173830569547
O          -0.37189232214884    2.28574886776773    1.15048338665459
H          -0.18560755863189    1.39229236446587    1.50709104919380
H           2.49216263482701    1.67336899393583    2.29798616311570
H          -1.30034149706836    2.25527990921006    0.90641781448542
N          -2.34868263695521   -2.68853063023046   -0.84268518166164
H          -2.50386322668565   -1.68511975859723   -0.80792007714871
H          -3.24046602206790   -3.15874005445268   -0.92611700679050
H          -1.79384890177873   -2.90061447168813   -1.66123967369111
