    26
        -50.46272318  Gyration_radius:  2.48096669555 Dipole_moment: 6.091
 S          -0.43580237013769    2.09845733710134   -0.93333168502304
O          -0.73902401774902    0.78043218366527   -1.52395946487609
O          -0.70357629009452    2.08149676899366    0.48380079425516
O           0.85721593305271    2.60135315855172   -1.32038820214353
O          -1.49140390289120    3.09398328202200   -1.59479482617987
H          -0.93632605339798    3.55888879330381   -2.21217896139951
O           1.32167701568552   -0.76945782283846    1.80549637993601
H           2.07885243886165   -0.85854833482161    2.38589774712972
O           0.22304602504765   -2.65629215321978    0.25486145424071
H           0.67437981559804   -2.01997426601134    0.85809474633895
H           0.55102563049556   -3.52924432405516    0.47262661245688
O           1.14884492421869   -1.11876272273026   -1.99537905128874
H           0.45898391110468   -0.43374903913613   -2.04038414550382
H           0.81542785545973   -1.79126995828314   -1.38688825464517
O           2.19789836102679    0.59776509930123   -0.18922251079293
H           1.80027667490945    1.42826625468972   -0.51118702922069
H           1.62764463376793   -0.15850848871889    1.06349443705884
H           2.07307269756675   -0.03603109371056   -0.92605804512880
O          -1.14397214377147    0.29409419621276    2.35155938025502
H          -1.03254630719098    1.13771261911600    1.86511702510153
H          -1.68817278103631   -0.43009409436846    1.11003277079156
H          -0.24176350672650   -0.07121792539955    2.39620933405270
N          -1.84916983745732   -0.86643597064803    0.13392582450466
H          -2.82921769971714   -1.04771478971211   -0.04907109780298
H          -1.28339106939339   -1.72592415085938    0.07437276546527
H          -1.45397992723192   -0.15922456844493   -0.57264599758176
