    26
        -50.45346015  Gyration_radius:  2.47911141486 Dipole_moment: 3.237
 S           1.38290873254919   -1.56704754931186   -0.03413978703502
O           1.78308843598465   -0.17921399886648    0.17080802276494
O          -0.04319244723092   -1.73262065643488    0.24354215287283
O           1.79812425275259   -2.12769236590725   -1.28693523996892
O           2.13543051892819   -2.38056748748825    1.10738140032146
H           2.19874626901638   -3.25623553896892    0.74044184132785
O          -0.62409062034054    2.41805600984353    0.24077979940746
H          -0.04909740043469    2.99427220191965   -0.26398893727200
O          -1.12273647598879   -0.66629535870544    2.37384842999929
H          -0.78377253313171   -1.26293667624665    1.66604427842026
H          -1.92972491548037   -0.24755355337206    1.99045084043661
O          -2.93192385533792    0.68608350633185    0.93466560129679
H          -2.64861799835231    0.40030699165859    0.05511406723801
H          -2.69983812001576    1.61736863858676    0.99369578998432
O           0.63067742869315    1.04345092795174    2.00027325615389
H           0.13595817313839    1.71156969156943    1.41025478749724
H          -0.12915872164013    0.32003441891001    2.29890507048027
H           1.21453905605438    0.51900956161110    1.30871774362590
O          -1.07908784530267    0.27118999843757   -1.15067729327423
H          -0.45445552696836    0.29942814362076   -1.91976271060819
H          -0.77830075065311   -0.51690577030056   -0.65290971551389
H          -0.80658098170094    1.62024608695224   -0.34322583313821
N           0.95339692428763    0.09629460320963   -2.86706350145227
H           1.29879879357236   -0.74269005234026   -2.39877403085088
H           1.67473148044555    0.79960269976265   -2.76327732827513
H           0.87417813718224   -0.11715444242106   -3.85416872444195
