    26
        -50.45346040  Gyration_radius:  2.47975197442 Dipole_moment: 3.236
 S          -1.68368115178416    1.05845166735206   -0.64067380727441
O          -1.62213662247533    0.27545864277647    0.59270820029566
O          -0.33915042467811    1.38140006593972   -1.10521049708032
O          -2.54053318831708    0.49455563148650   -1.64281810899296
O          -2.31849697103028    2.45692102682727   -0.22515531308272
H          -3.25273290288412    2.30418861442330   -0.32137208426725
O           2.47054339565379   -0.43521311409314    0.03890827887644
H           2.84939255284934   -0.43070860218887   -0.84086056768448
O           1.20544556008461   -1.42591751920574    2.53968841542424
H           2.09657748954765   -1.29212156953391    2.20407606762766
H           0.71008682086421   -1.83216543020155    1.81486706605600
O          -0.00938749943260    0.96049913386402    2.53433410339336
H           0.40839263839470    0.09331549114538    2.75155142478956
H          -0.77817314471968    0.73699924572859    1.95902657593933
O           1.36817791883447    1.79353671379771    0.65182840745237
H           1.94765255098718    0.97883829199237    0.45166008382627
H           0.64539559111364    1.74691326153266   -0.10231352243046
H           0.81680460205767    1.52806387729675    1.55554905956298
O           0.14429427430894   -1.58952785511579   -0.06520191137360
H          -0.54877599822933   -0.96582073442375    0.23479359084147
H          -0.06690530530243   -1.71041007423462   -1.02611187994636
H           1.59365914510197   -0.92111327771098   -0.03488343215728
N          -0.63674918710334   -1.40298630177466   -2.60713852187086
H          -1.38169813547435   -0.75467706553979   -2.34719833444247
H          -1.05953515717356   -2.15267651442436   -3.14144484115899
H          -0.01846686110988   -0.89580360568409   -3.22860843226045
