    26
        -50.45346039  Gyration_radius:  2.47977983895 Dipole_moment: 3.236
 S           0.70208202821763   -1.07621154432776   -1.64715158369154
O           0.32987183884583   -1.72393051838882   -0.39430164677586
O           0.10488965494002    0.25604068908484   -1.72931149344025
O           2.10661725334069   -1.10011845788212   -1.93565222059268
O          -0.01556867301793   -1.93423234909078   -2.77870000324562
H           0.52723372861684   -1.77483981702561   -3.54381118363879
O          -0.87662354817310    0.15318464818027    2.34674733879163
H          -0.36613371356024   -0.38019092247398    2.95699591483259
O          -1.77743799005762    2.49241396334760    0.74928434140019
H          -0.81543704426639    2.46079611403217    0.65186381105366
H          -1.96497981794801    2.11259097722751    1.61253745803806
O          -2.39965093812968    0.64130708246207   -1.08277391279499
H          -2.32814975252387    1.43744074953056   -0.50406427588309
H          -1.52338954076904    0.57035791446944   -1.52918956867686
O          -1.94466191635241   -1.23019887079264    0.47440362538687
H          -1.64858827733009   -0.72763059974010    1.31042734548472
H          -2.27462556977525   -0.45162727389459   -0.21636597847157
H          -1.03517580266147   -1.55044200419649    0.07009817971157
O           0.74945954376435    1.25258289394723    0.64235507590318
H           0.51659275332589    0.97343673205151   -0.26706471360342
H          -0.21264357926444    0.58893984586327    1.73078187403389
H           1.63504514411251    0.83048509395141    0.78436781926901
N           2.94585008072069   -0.25831679384627    0.66109861242932
H           2.91708580720244   -1.08125693126253    1.25069858096793
H           3.89482505039304    0.09591442827829    0.67667219907275
H           2.75351325031377   -0.57649505952896   -0.28994560566626
