    26
        -50.45346049  Gyration_radius:  2.47953100109 Dipole_moment: 3.233
 S          -1.08719166238492   -1.63760953777913    0.70902707388984
O           0.34443142003556   -1.66588007734920    0.41284489875908
O          -1.54137474114847   -0.26354480984123    0.89216626309015
O          -1.88218068471844   -2.41139306517933   -0.19966663383499
O          -1.23830651280879   -2.31133966868650    2.14243670668608
H          -1.33128905505093   -3.23536997362650    1.93512004629437
O           0.36444570037996    2.46170024113025   -0.31404458177627
H          -0.42939875003210    2.90954119118995   -0.60851334510707
O           2.02624077333134   -0.20963161097505    1.78805688916138
H           1.51503740454088   -0.93095552037710    1.35180155920565
H           2.56369572608873    0.19550323889070    1.06644213790172
O           2.95676272166203    1.01524798201096   -0.40397063693288
H           2.39092737975594    0.57785725786881   -1.05527820769297
H           2.65539096776422    1.92766625776292   -0.36750034125590
O           0.50870434048957    0.15693590701633   -1.50633769979949
H           0.40434525281105    1.59575013314491   -0.82306421823199
H           0.52122766995832   -0.56094983499332   -0.84020614097790
H          -0.36112665687765    0.02203617004166   -1.96207618545301
O           0.07079454986198    1.30227518555072    1.95067964795311
H           0.96949263852398    0.68536240284858    2.00211698866408
H           0.21214804057535    1.90034559408980    1.13727615925499
H          -0.66650096718771    0.63932682036097    1.61821616712479
N          -1.98678862396942   -0.42142280073870   -2.24457068871263
H          -2.69720965842817    0.24064527461821   -1.95705688711131
H          -2.02259384941994   -1.19244150837234   -1.57594424862758
H          -2.25968342383001   -0.78965522858792   -3.14795470249329
