    26
        -50.45538148  Gyration_radius:  2.56576656076 Dipole_moment: 4.109
 S          -0.99868188214977   -0.26449901690187    0.19738154412350
O          -1.27975335430875    1.12556219169430    0.54817886869032
O          -0.79109255383860   -1.12362213188356    1.33721967019673
O          -2.20784051716875   -0.76462764294507   -0.62271381125685
O           0.17097644458964   -0.30472867886392   -0.71501116607147
O           2.45183908555565    2.03982884117862    1.18290878704430
H           2.49648846044142    2.94019820191047    1.51106658059606
H           1.78432276761400    1.56980670569974    1.75577042288651
O          -0.68058303920695    3.16115895431212   -0.93051234499546
H          -1.29247070565981    3.19964784058189   -1.66783937778575
H          -1.03261681254537    2.46719160118894   -0.31413345388602
O           0.48284259293705    0.96071181263269    2.51799138621034
H          -0.26634602055177    1.26704513023912    1.97612300302287
H           0.36420111030491    0.00138984835556    2.50589214868693
O          -1.89572513538850   -3.20067583414321    0.03643224978150
H          -1.10041005587230   -3.39685167724701   -0.51817447479606
H          -1.53689500828402   -2.82618014713594    0.85525852856855
H          -2.23125888107257   -1.76326675363688   -0.46157862564638
O           1.43484896371167    1.76293793760860   -1.12342088636143
H           1.93401186391508    1.89808142624638   -0.22710127948769
H           0.91992253535009    0.82406635119144   -0.99410501788366
H           0.66859124599996    2.44152840671673   -1.13819921442808
N           0.42277961405327   -3.11833343693815   -1.32465447360866
H           0.44834401224106   -2.11298849645861   -1.15654934531102
H           0.48185876484345   -3.26436994593824   -2.32451070686229
H           1.25264651451295   -3.51901150749475   -0.90571900143932
