    26
        -50.46272395  Gyration_radius:  2.481626583 Dipole_moment: 6.089
 S          -0.73055420882510   -2.06067234346528   -0.83145380582387
O          -1.22634817930021   -0.72166591737212   -1.20507494482387
O           0.70374142310152   -2.03580539663654   -0.68194504577371
O          -1.46423196674591   -2.64261916941395    0.26315522527623
O          -1.05193191132407   -2.98142200818409   -2.09255744600272
H          -1.80377846877332   -3.46727329927178   -1.77033812134570
O           1.32857075413151    0.66779265254022    1.83942512130767
H           1.66518755709235    0.70323781662852    2.73580902023894
O          -2.25909961438089    1.04480341559321    0.58533883262137
H          -1.59055569533173    1.73597986975503    0.49004156729207
H          -2.08831193866699    0.40791439636802   -0.13054644665605
O           0.13745538562264    2.63280880828672    0.46407143986472
H           0.59325273590138    1.96429600350611    1.02787034351642
H           0.23374042904968    3.47957248090839    0.90081110320627
O           2.58615428931384   -0.22784103134989   -0.42401281212077
H           2.10260762914112   -1.07509697379391   -0.51964332548723
H           1.54909708016760    0.53964906966234   -1.25825836795521
H           2.35763895718307    0.07294266308408    0.47424544070051
O          -0.81491691644484   -0.74196383906311    2.00988976738694
H           0.53709436282020    0.04305204353532    1.87837796862748
H          -1.49234373114178   -0.09862622272758    1.71425764218675
H          -0.99115873164222   -1.54199965771935    1.47989606561810
N           0.65636345887508    0.99115237449381   -1.66883200275369
H           0.76566291146732    1.24017271454406   -2.64497762608656
H           0.42027009154096    1.80998092326013   -1.08917724766302
H          -0.12360570283060    0.26163058683270   -1.54637233535098
