    26
        -50.46154474  Gyration_radius:  2.43322263708 Dipole_moment: 1.403
 S          -1.02225882560298    1.67493455348863   -0.85539553356869
O          -0.58583127055704    2.47978921142027    0.26619007911844
O           0.05697009926907    0.95342592852029   -1.50440191209813
O          -2.12059289471901    0.78374288615008   -0.49117084480532
O          -1.58797380267953    2.67764489486278   -1.93695140913127
H          -2.08726913888578    3.30145770213935   -1.41991392539124
O           0.06261971114879   -0.92303400682802    1.80850370634308
H          -0.55336931411886   -0.26626465966763    2.21189431898488
O          -1.62138271662661    1.07097447551906    2.27335753254551
H          -1.21726247142392    1.69967194913853    1.64169880939482
H          -2.45183999938742    0.81527697451926    1.86303324359776
O           0.37404726256347   -1.66680628604648   -1.93768659029525
H           1.20878229084680   -1.83786895727274   -1.41164844554158
H           0.34500293236425   -0.70046973878327   -2.07090270922740
O           1.68184716565989    0.83453259659594    0.56637960297362
H           1.51210730617533    1.66740046313815    1.01609564332353
H           0.77411735692933   -0.37237235446744    1.41290675086952
H           1.18261735439156    0.91090656421529   -0.27397908532596
O          -1.34819454888683   -1.60306273338635   -0.15637015541614
H          -1.76882854858992   -0.69155668582595   -0.33824170803997
H          -0.64554940528344   -1.74845557225864   -0.96962809815395
H          -0.75749362895952   -1.43772129380795    0.70043095374540
N           2.45218561093170   -1.92361843474407   -0.29220318758543
H           2.58812751729242   -0.96196872715808    0.00308452333351
H           3.33721868990722   -2.27690399252077   -0.63187364285795
H           2.19220325823511   -2.45965477698424    0.52679208311747
