    26
        -50.47000230  Gyration_radius:  2.46325654253 Dipole_moment: 2.808
 S          -0.22434045669903    2.15678443004865   -0.45521793659107
O          -0.09198514204559    1.88854868112212    0.95559053206471
O           1.00955882444806    2.47391738071391   -1.13220788781914
O          -0.98563862464571    1.08621762360313   -1.11963668578539
O          -1.13845470573687    3.45217730664950   -0.61600823494710
H          -0.48901523612798    4.10288146045199   -0.86018449599887
O           1.46243578402187   -1.43915369557424    1.47461875853035
H           2.27253132421979   -1.74911734164606    1.88113067540739
O          -0.25589445253796   -2.59595697050383   -0.33626745445113
H           0.42248280533587   -2.38268127416877    0.33107603301337
H           0.03217669356289   -2.15219844101156   -1.15135129647575
O           0.39489822589723   -0.79209661247271   -2.33022881561078
H          -0.13547855479269   -0.05587457552212   -1.94065242859006
H           0.38978675866797   -0.65548448226544   -3.27838971674767
O           2.18067576716233    0.18226222823851   -0.45470242411600
H           1.82277444495968   -0.28736899939300   -1.22401616105086
H           1.88098235676667    1.10275314650432   -0.57119826323803
H           1.73662926663689   -0.74537025735283    0.81699815768854
O          -0.59652792762505   -0.06802235707027    2.66245237475514
H          -0.38697851424580    0.79446647773007    2.25116848571170
H          -1.52964143249677   -0.50691265329008    1.49135756695045
H           0.18560834375444   -0.61668928624704    2.47028865680454
N          -1.93377155664701   -0.74767741520841    0.52605641782039
H          -1.67277453702248    0.04723277081752   -0.11487022355911
H          -2.93658479150157   -0.88892979123817    0.55064213528107
H          -1.41345465856611   -1.60370737258292    0.17355221035751
