    26
        -50.46272422  Gyration_radius:  2.48140093837 Dipole_moment: 6.096
 S          -2.32284809879687   -0.23585656122885    0.13563704651793
O          -1.74937383991358    0.06057038760590    1.42533069368502
O          -1.55497786719903    0.43789696514146   -0.92976582413742
O          -2.55635387230462   -1.63006998482995   -0.14096587658798
O          -3.76163687644685    0.44986115878640    0.09721814194833
H          -4.27019479364443   -0.22781636691343   -0.33574715257897
O           1.83337064200207   -0.98977745941484    1.12027587316515
H           2.38213314125246   -1.67017242277048    1.51273984047765
O           0.36759105002695   -0.79894054408531   -2.40175786569194
H           1.11955719094935   -0.26551885599565   -2.11235490565056
H          -0.42538911042770   -0.34981867972459   -2.06014274361280
O           2.42893212102411    0.59401247169335   -0.95548216862997
H           2.28678073595789   -0.01497369934750   -0.19298600961876
H           3.35801507513445    0.54603851731535   -1.18254469255067
O           0.02380425264241   -2.28424475722808   -0.16907313039373
H           0.19291353152937   -1.98777790770305   -1.08758064757579
H           1.06826439587135   -1.48427579311966    0.68657156199762
H          -0.93621340852276   -2.16126101107674   -0.04590293721581
O           0.49143310661102    1.05136468784567    2.36136772888176
H           0.39549348338200    1.76364614211070    1.00313714895201
H          -0.41338701423380    0.68276768985656    2.28258810294878
H           1.07075393628902    0.30136365247714    2.13462625656897
N           0.28051346250595    2.02853071902100   -0.03888006248608
H           0.07906018577987    3.01357875370047   -0.16511061647085
H          -0.52803776005188    1.42362828052780   -0.40760494940896
H           1.13979634058358    1.74724461735634   -0.53359278253262
