    26
        -50.47000499  Gyration_radius:  2.46324333484 Dipole_moment: 2.743
 S           0.02181462146365    2.16874723508354   -0.45213389903833
O           0.00490414422921    1.88995139474130    0.96320561862769
O           1.33543177049673    2.36766382711874   -1.01400530336033
O          -0.77660909686909    1.17641277609533   -1.18915631661106
O          -0.75043786266726    3.54384209059012   -0.68093597588836
H          -0.02240186701072    4.14511078507868   -0.79584040305236
O           1.18465440968616   -1.57723779299188    1.57739238569082
H           1.92286435369458   -1.96739558363216    2.04681050295933
O          -0.47132057871389   -2.55894619445991   -0.38803359432872
H           0.16366709681584   -2.41257104168787    0.33755784048867
H          -0.07279726521911   -2.14338127597397   -1.17068003799806
O           0.52077356268382   -0.82044362117344   -2.29911528757181
H           0.03002996362012   -0.03862155306038   -1.94871159515378
H           0.61721370483889   -0.67761557585349   -3.24135591996530
O           2.21933730581674   -0.02702326412552   -0.26431453516749
H           1.88660348215345   -0.45834776718468   -1.06669344949403
H           2.01974343883601    0.91828027182575   -0.39626878727810
H           1.58041276476356   -0.91118441403771    0.95392552582214
O          -0.82911083379707   -0.01545918209080    2.59676140961080
H          -0.50328011170889    0.82328741729811    2.21258358290677
H          -1.69522401389526   -0.36285935671105    1.34648597714853
H          -0.08918984954334   -0.63638372266982    2.46856204787710
N          -2.03554952675458   -0.56203288208161    0.34762023115975
H          -1.57019877502988   -1.46271059969854    0.03176263583570
H          -1.64574286519178    0.20582722114805   -0.26000233125205
H          -3.04558797245411   -0.60690917173039    0.28457967812226
