    26
        -50.46272410  Gyration_radius:  2.48193047215 Dipole_moment: 6.087
 S          -0.43938265775482    0.81729058335128    2.14775336746777
O          -1.66114911908987    0.49035813129184    1.45466903410678
O           0.63509523779092   -0.11398566796711    1.75132431778054
O          -0.03296940459634    2.19775297492210    2.08370320454427
O          -0.68706419259047    0.52041919037743    3.69419778933118
H          -0.24812075277997    1.26586513327666    4.09043378454798
O          -0.71357963132209    0.59059803555299   -2.17669721982409
H          -0.93645079382242    1.14039715381372   -2.92912321018809
O           1.21433766567421   -1.26144685101688   -2.02354349860834
H           0.52020544091373   -0.57422348551691   -2.15954162119967
H           1.57693694408174   -1.46768816617103   -2.88550100826215
O           2.50789920927041    0.47641283311360   -0.12927547940287
H           2.00269872353442    0.27031022300814    0.67669596812975
H           2.26718942053554   -0.20230858519606   -0.77357781989294
O          -2.37798713707780   -0.93691819044812   -0.62662024257211
H          -1.14617872817585   -1.71491978658725   -0.13694195808077
H          -2.38750385930142   -0.36422125061082    0.16861842218675
H          -1.97797459030883   -0.37595268886976   -1.31579102425527
O           0.45324319007199    2.18563103623526   -0.53273381215015
H          -0.33517136771880    1.22434908215021   -1.48832928354933
H           0.17667276719380    2.31634286248500    0.39391100837194
H           1.34211405482802    1.77832747779052   -0.46744925419126
N          -0.17258577276091   -2.03007994975139    0.21206623428260
H           0.14778715564970   -1.27633408879662    0.90837120400058
H           0.47174680342668   -2.01521585393806   -0.59225118168518
H          -0.19980855567214   -2.94076015249921    0.65563225911231
