    26
        -50.47000587  Gyration_radius:  2.46331821079 Dipole_moment: 2.727
 S           0.10561400619601    2.17279367075486   -0.42174797740863
O           0.14723267893872    1.87228176118372    0.98876375287621
O           1.39746823372133    2.31761010591294   -1.04698172438982
O          -0.77677714027811    1.23261169673569   -1.13044147072248
O          -0.60982073096655    3.58652909468739   -0.59112251301564
H           0.14066340644074    4.15788035848650   -0.71418763712465
O           1.18509436851633   -1.66018773152518    1.49027015986969
H           1.92666440022674   -2.09205048943544    1.91588998417069
O          -0.61623491366130   -2.52656321352519   -0.40058670834701
H          -0.23816633211092   -2.11738420379327   -1.19670889582601
H           0.06162810407041   -2.42410914526209    0.29299453940464
O           0.36069780869689   -0.80634636610754   -2.33585749279431
H          -0.07170585424643   -0.00740468909078   -1.94928765405970
H           0.41450993511721   -0.65318381222511   -3.27985415019348
O           2.19779960374838   -0.12996296018427   -0.38025490930113
H           1.58028412117706   -1.00355184502921    0.85659139968119
H           1.80411974467470   -0.53097718014684   -1.17063657462554
H           2.03882831764682    0.82608848986703   -0.48821269511988
O          -0.69393424339643   -0.01920343090115    2.63432157372309
H          -0.34744491281112    0.80920073336097    2.24557448511997
H          -1.63954389291307   -0.30319128973212    1.42654554416636
H           0.00684188789487   -0.67312907157100    2.45876052740776
N          -2.04004274153105   -0.46862755152162    0.44391085882748
H          -1.63644214129214   -1.38537582533939    0.09136785957162
H          -1.64436332659400    0.28961445445417   -0.17189832370684
H          -3.05297037728107   -0.46336156004037    0.43278802172447
