    26
        -50.46272383  Gyration_radius:  2.48225939828 Dipole_moment: 6.084
 S          -0.97486949577048   -0.57833511257837    2.04729656696328
O          -0.25466690092890    0.66693491755270    2.15104514828960
O          -1.57428172596894   -0.70896826043650    0.70475975974957
O          -0.25075244352784   -1.75621964135680    2.45165169279355
O          -2.21675206362122   -0.48326967227250    3.04184970312045
H          -2.21491086164766   -1.35999139923562    3.41121766089831
O           2.19474446274636    0.53603423812353   -0.69689956679668
H           3.14777137119026    0.48294736505383   -0.78083746108153
O          -0.44834816562991   -2.15023661688555   -1.30675122459639
H          -1.00069328631411   -1.78356633128871   -0.59414566120666
H          -0.28690948380920   -1.42039138155712   -1.91908481449231
O           0.36890961610063    0.26751793509343   -2.63726428814258
H           1.09817784308339    0.36519928330311   -1.98060726989190
H           0.77058118766597    0.28526641933136   -3.50637431770327
O           1.52463888826121   -1.65249626034823    0.47260753249993
H           1.93031840603360   -0.27706104946337   -0.16028893409489
H           1.00311165913868   -1.69368381140935    1.29652577508442
H           0.94612181279164   -2.06277808972368   -0.20355640403437
O           0.69742081938166    2.48405735999643    0.51565753649071
H          -0.52383558994617    1.98224195638850   -0.27071809840659
H           0.44246097181463    1.98252767014766    1.31819312246353
H           1.40550654722879    1.94631257397445    0.11679328363502
N          -1.28615434705224    1.39848433187999   -0.76798897175212
H          -2.13832915461694    1.92621758227953   -0.91670242100001
H          -1.46824001593357    0.55140501194208   -0.13179520519647
H          -0.89102006067033    1.05185096148978   -1.65458315359251
