    26
        -50.46272344  Gyration_radius:  2.48121086829 Dipole_moment: 6.098
 S          -0.98865982292102   -1.81161590269930    1.09898847309820
O           0.31849445877898   -2.15060609786968    0.59227976633396
O          -1.02416967166677   -0.39369531311467    1.50678684730979
O          -2.10040925565961   -2.18057488513131    0.26061558927863
O          -1.19039106129948   -2.63009055663164    2.45246774624485
H          -2.09252234518388   -2.91643620294956    2.35492966513420
O           0.94426994280186    0.32287618050871   -2.14445545549149
H           1.03848580834360    0.27883065624950   -3.09697916404617
O          -2.00129963564908    1.59376847733072   -0.07103587614160
H          -1.81996827413143    0.92942585779391    0.61668373376008
H          -1.18019769310163    2.09077398381544   -0.18261515205060
O           0.66756935413475    2.51521103743955   -0.63190539653478
H           0.78325309924804    1.75740847243523   -1.25232584238100
H           0.86584951774353    3.31257774301344   -1.12375123775616
O          -1.45249777379877   -0.49549006563742   -1.69661218650138
H          -1.85198520265635    0.29788160204712   -1.28286468317990
H           0.04065818288820   -0.08077614314669   -1.94902819089306
H          -1.68509683149868   -1.22765334032186   -1.09537689092973
O           2.46892875152682   -0.88411188207811   -0.21356516180122
H           2.10559671349733   -0.52646742767566   -1.04391424834057
H           1.89954939579693    0.11559765754472    0.80546889781867
H           1.82815375816778   -1.57984394858504    0.04374653933689
N           1.28036936452128    0.77658109563967    1.39601633418267
H           1.69007600152282    0.98157562632629    2.29988022574928
H           0.33829033023967    0.27162558445941    1.51025010122597
H           1.11765288835545    1.63322779123742    0.84631556657414
