    26
        -50.46272398  Gyration_radius:  2.48164642605 Dipole_moment: 6.096
 S           0.18090799642715    2.30390169222408   -0.36000073291422
O          -0.37240140969035    1.29698336330642   -1.28657280124199
O          -0.23327588625705    2.01679577756340    0.99138512429465
O           1.59223491646498    2.52146984892307   -0.54980899799104
O          -0.51803826790880    3.67348007125850   -0.78086851911315
H           0.19459136593962    4.10117545255579   -1.24422133102520
O           0.90633183293156   -1.50420610138965    1.58256418147218
H           1.55318583971936   -1.92765964702422    2.14858173883384
O          -0.45674906068166   -2.59978211741321   -0.44522023314664
H          -0.37768469295998   -3.55409490857664   -0.45057554577214
H           0.07308643644926   -2.27095095629494    0.31879282548761
O           1.03591577447626   -0.85124306457849   -2.17840377778213
H           0.48994170627371   -1.54253158450670   -1.78141706343692
H           0.54181918549280   -0.02082026460886   -2.06214144690230
O           2.29257638250716    0.02449656284017    0.04904330012174
H           1.42929733162839   -0.83544269034246    1.03699178476168
H           2.08899662929304   -0.35141646368038   -0.83267869146958
H           2.14110535716867    0.98292946625343   -0.05368044785784
O          -1.26932314325791   -0.00322145486620    2.30512676599187
H          -1.84710988527038   -0.23396703886598    0.89966579084873
H          -0.49024559434768   -0.58804344553326    2.28091100205852
H          -0.91151222621963    0.87644915541234    2.06238744428115
N          -2.01006314165712   -0.36018127263629   -0.16168988626409
H          -1.38658307639243    0.37129769965734   -0.64295711936501
H          -2.98137107069834   -0.23019370980104   -0.41957116691654
H          -1.66563329943300   -1.29522435987435   -0.42564219695257
