    26
        -50.46272407  Gyration_radius:  2.48149437878 Dipole_moment: 6.094
 S           1.79628573125663    0.20072912950830   -1.48434260796703
O           2.24155849779068    0.22701277995294   -0.11277344558953
O           0.62168594875924   -0.68256484438258   -1.62118646938500
O           1.60365778843768    1.48607443292532   -2.10543433735470
O           2.94322496378525   -0.51146289753264   -2.33236528659735
H           2.95583386121561    0.03570266049190   -3.11082297509196
O          -0.78267172514414    1.27031616836142    1.83565310324938
H          -1.03350787317149    2.03737599011539    2.35219732540735
O          -2.35885089402997   -0.73810164857981    1.02856543910419
H          -1.84111919168316    0.02863911366107    1.37019289217520
H          -3.20609741432837   -0.72483120228477    1.47470349974997
O          -1.94125876430494    0.22579727773204   -1.65147770237063
H          -1.06498226786769   -0.15196101683182   -1.84291207479441
H          -2.24518935953428   -0.20609854950938   -0.84230227173276
O           1.30491649789252   -0.45832921423963    2.23948876459229
H           0.62214274149918    0.23280182770063    2.31454021840226
H           0.59336368828504   -1.46922701784550    1.32569026429482
H           1.88234467933605   -0.14182166912044    1.51356331939535
O          -0.43741821278147    2.18062362084495   -0.54426453149655
H          -0.55712631803470    1.62983766308011    0.92026027674080
H           0.37854458318912    2.06533384438536   -1.06662445340410
H          -1.11924988747638    1.68264020162928   -1.04157439737045
N           0.03987188113244   -1.97199596734274    0.54488016939426
H           0.32474609859181   -1.49101984267483   -0.37337392839695
H          -0.96280270779088   -1.79119895823811    0.70126175588445
H           0.24209765497629   -2.96427186180604    0.50845746316166
