    26
        -50.47126129  Gyration_radius:  2.42923417558 Dipole_moment: 4.303
 S          -0.10636021127390    0.40159929931706   -1.86524187117343
O          -1.52266275387936    0.39640765863116   -2.20118131480512
O           0.21166855131158    1.48328804776551   -0.93904131151523
O           0.37334157575592   -0.87917716261457   -1.39724883080374
O           0.66385628147377    0.71414509421988   -3.20786487175643
H           0.14331971962466    1.42048853222975   -3.57535725669962
O           0.53234759808242   -0.94149603800781    2.25148503631297
H           0.92576476282318   -1.20051327646016    3.08514943135925
O          -0.97705785337895    1.19200173484285    1.43539928865437
H          -0.50052758755885    1.44337897760020    0.61754864019895
H          -0.41920591514087    0.51646430498047    1.86557288860693
O           2.66017031722931    1.88895384744730    0.01627928741649
H           1.78838480842029    1.81346769855005   -0.42285008166352
H           2.55815079039596    2.55421451175877    0.69894958586943
O           2.35867367306139   -0.78374732042051    0.42363723529115
H           1.76996281865270   -0.91042102558841   -0.34353306444325
H           2.68816217117624    0.13046533366806    0.33689329044957
H           1.28775119368903   -0.88422668382797    1.59031208314987
O          -0.94163867180817   -2.38068943532003    0.43455628966721
H          -2.08580710600065   -1.30197019354303    0.24492329808761
H          -0.40557567493693   -2.10337632517005   -0.33078039305029
H          -0.44555745357735   -2.05174318816557    1.20773984522807
N          -2.57092012593995   -0.36703175463038    0.06840757546479
H          -2.29876130473417   -0.06555421071106   -0.90783160953387
H          -2.11081990958342    0.33240159033652    0.73021361393055
H          -3.57665968388506   -0.41733001688412    0.18386322575915
