    26
        -50.47000234  Gyration_radius:  2.4631690077 Dipole_moment: 2.807
 S          -0.43790631582458    2.12864591514334   -0.42937143356516
O          -0.42257419351407    1.82875432772898    0.98120234473876
O           0.81189309077452    2.61481651957337   -0.96124494681977
O          -0.98806754820167    0.99869692631134   -1.19584666226237
O          -1.48220303883521    3.31012615155536   -0.65980093414157
H          -0.89559210586363    4.04190463346789   -0.81847540853455
O           1.46451297117565   -1.30460330196742    1.59256387217782
H           2.25951318964833   -1.53145248185476    2.07635333953853
O           0.10082872237757   -2.59428194828504   -0.41900544757513
H           0.67394743223555   -2.32428323577576    0.32243568413422
H           0.41641201937282   -2.09143883573442   -1.18826462063459
O           0.73257130145024   -0.65684528685782   -2.29062902863825
H           0.07738754162901   -0.00388812500514   -1.94497493108250
H           0.81314758238617   -0.48614481675669   -3.22973431566739
O           2.17789704651403    0.45748074499230   -0.21116690359316
H           1.96237683273206   -0.02462658671194   -1.02458139998613
H           1.78138315499736    1.33900375221048   -0.33914620085875
H           1.71949582841328   -0.56024663341177    0.98440271895808
O          -0.86085150673767   -0.23197577729936    2.58008424100095
H          -0.00152492108211   -0.67619084422080    2.46258437223238
H          -0.71620580583466    0.66310419832599    2.21272239392878
H          -1.60460651976492   -0.73799403714673    1.30509662748919
N          -1.87247711107732   -0.99137413206680    0.29655075783688
H          -2.84749225642478   -1.25184719518988    0.20902548054482
H          -1.21719141621422   -1.76625943122913   -0.01611386977198
H          -1.64467397453515   -0.14908048978333   -0.29466573952907
