    26
        -50.47126131  Gyration_radius:  2.42927117472 Dipole_moment: 4.303
 S          -0.41920560562431   -0.69120118826133    1.73151333085768
O          -1.85954073637134   -0.90091511950826    1.74686263733057
O           0.23204106795081   -1.57538733679362    0.77068068425768
O          -0.04644806966610    0.69260007162961    1.54255474171137
O           0.10277776881191   -1.11293132555959    3.16088662024424
H          -0.37368993059543   -1.92167132526591    3.31543094067068
O           0.83108045815917    1.32891181753827   -1.94509258282449
H           1.34185867166515    1.75558912146420   -2.63350678333926
O           2.85487648981346   -1.54420030609886    0.33237567915395
H           2.99010063456887   -2.10584058873951   -0.43268471781334
H           1.91115260092540   -1.63787240671722    0.57568253338544
O          -0.48545023759885   -1.06400883451473   -1.75106650466749
H          -0.15141455992975   -1.38044664196289   -0.88649746691631
H           0.04341084781244   -0.27107127722186   -1.96109764226904
O           2.25663895134820    1.10641570619759    0.20430001787856
H           2.69113201547200    0.23390193227366    0.24658952374752
H           1.43862814400934    1.25923100543184   -1.14693204660694
H           1.51382710176407    1.04566604361007    0.83331637432784
O          -1.17055045700329    2.29430905893599   -0.33082646710887
H          -2.16074628479309    1.07452986133949   -0.53210528729385
H          -0.76450634227235    1.96721446575564    0.49265822333784
H          -0.48703792796144    2.14641536186558   -1.01133226226753
N          -2.53049346934716    0.07395372065473   -0.58393043863912
H          -1.85025935450741   -0.45862499575558   -1.21045852809903
H          -3.48890689403807    0.02479647567308   -0.91017554010125
H          -2.41927490258935   -0.33936327597333    0.38285495104167
