    26
        -50.47126131  Gyration_radius:  2.42919096674 Dipole_moment: 4.307
 S          -1.31213769633574    0.68739855488257    1.20713340084982
O          -0.95704124345313    2.07930216774092    1.44231927440174
O          -1.69421813762351    0.46884005791079   -0.18405249070493
O          -0.29765640443496   -0.24261320711170    1.64912285525211
O          -2.59836865724221    0.40714493943655    2.07915131471494
H          -3.12235383926448    1.18409197136644    1.91562276574801
O           1.76161835151233   -1.33467375343563   -1.16357855585780
H           2.27430294492815   -1.98452858744681   -1.64494360762784
O          -2.38451438897110   -1.91846568131334   -1.13096109602743
H          -2.24539506962076   -1.02343835971265   -0.75928758559885
H          -2.43964620905804   -1.80687695274721   -2.08153041790298
O           0.32278400915266    0.88009267311700   -1.88630818475979
H          -0.50765666247842    0.72000058126299   -1.39240704608807
H           0.84552754136307    0.06152851440257   -1.79045473129347
O           2.34010266942565    0.07575119973134    1.12117856047726
H           2.35022927917450   -0.48454562806555    0.32235366295327
H           1.88565117076125    1.49051583442821    0.57328706487025
H           1.49773742398916   -0.14510901752738    1.55900094714146
O          -0.09198994183922   -2.51134057527905    0.20806299904372
H          -0.21062520790871   -1.80906897364016    0.87430190997815
H          -0.93303966185884   -2.53091404849356   -0.28604672183138
H           1.05470418670327   -1.84773211336667   -0.66551149345209
N           1.29054049338504    2.25211593496781    0.11889283982653
H           0.98160595339431    1.85993625978021   -0.82426516494998
H           1.77806556640724    3.13708818654791    0.03803992020230
H           0.41177350988681    2.33550001256758    0.70087958063687
