    26
        -50.47126130  Gyration_radius:  2.42927086101 Dipole_moment: 4.303
 S           1.28853138542990   -1.37467607609847   -0.31820553279473
O           1.13153708332995   -2.33605705285612    0.76342634096083
O           0.09824519993978   -1.33051073594024   -1.16101565967230
O           1.68521112738718   -0.06190385599039    0.13877933474492
O           2.46377260860590   -1.91702321558732   -1.22273291422715
H           2.25641196374518   -2.84351437270637   -1.28277629231647
O          -1.20700233986244    2.15856218636249    0.35166796696228
H          -1.63780334204045    3.01012827391024    0.27343115045321
O          -0.13010731859697    0.30443089110130   -3.24602371362298
H          -1.04491966532286    0.23382542440802   -3.52384148487638
H          -0.00209769393936   -0.37656843567698   -2.55433673492060
O          -2.05554875569809   -0.43619030930581    0.14183696879362
H          -1.36760440536070   -0.79984464210123   -0.45284565306996
H          -1.90240863239058    0.52754230136290    0.15979982467639
O           0.53151690925535    1.19112902060247    2.24535673358706
H          -0.10874881587088    1.70441258874028    1.71740129680773
H          -0.19574273967678   -0.20021527837964    2.45515851699135
H           1.18210686698529    0.87421135865554    1.59245137080873
O           0.76250006314673    2.00743513283868   -1.32160612116096
H           0.48331527498736    1.57860042634632   -2.15226436727385
H          -0.46578303725696    2.15546273101710   -0.32776899748058
H           1.26968310814316    1.32342235126791   -0.84618518251184
N          -0.66121454142354   -1.13713303029351    2.24045269455174
H          -1.03810859803407   -1.58800801304864    3.06631817325049
H           0.06856027748070   -1.73376875332358    1.76148684202645
H          -1.40430198295314   -0.93374891527727    1.50203543932365
