    26
        -50.46824834  Gyration_radius:  2.3882898451 Dipole_moment: 4.279
 S           1.18045777476667   -0.27205505084421   -0.45226690988984
O           2.49719700726969    0.08611476185107    0.05751425818813
O           0.37066056534236   -0.68781451601650    0.83213098701672
O           0.49114855620321    0.91752200289861   -0.97396294992359
O           1.16171676168882   -1.38042473484456   -1.37134498017493
O          -1.22084641721840   -0.40334242808199   -2.53810161416876
H          -0.57714381822503    0.20966117497164   -2.13573201757635
H          -0.68844818980182   -1.12367467454476   -2.88764751875292
O          -0.39310978776098   -3.47517577768725   -0.78161828876933
H           0.12993284389995   -4.13861598255597   -0.33071170785273
H           0.23581262599138   -2.77997352143672   -1.06496073797472
O          -1.67574664251481    1.54000164856616    0.50346644703090
H          -0.95171947987686    1.37770521742709   -0.13317284368474
H          -2.25905047208574    0.77869630207389    0.42658090065955
O          -0.08382973460551    1.42300041621762    2.61064926449220
H          -0.84000858189187    1.56736147884458    1.98954794741163
H           0.12193305691601    0.48401946643799    2.51267506632416
H           1.03362952057261    2.06846158889439    1.74584003392620
O          -1.90337326753945   -1.33725981659715   -0.14808375269304
H          -1.84433501224428   -0.98090141435442   -1.06931486774359
H          -1.69494194909122   -2.28279579715742   -0.25300644291716
H          -0.55497818184601   -0.95320185518171    0.51151126386986
N           1.71837629159914    2.32800967865866    0.95387483807540
H           1.16827392999971    2.58032080530712    0.12903473041124
H           2.20424200048024    1.39830536438965    0.64899477437048
H           2.37415062996264    3.05605564278152    1.21810413032983
