    26
        -50.47126130  Gyration_radius:  2.42925043128 Dipole_moment: 4.304
 S          -0.31154026348293    1.74214922059541   -0.72071693710436
O          -0.63653041193336    0.58206240681422   -1.54393510332587
O          -1.49425587682620    2.25522370155244   -0.04490825314023
O           0.79182511541579    1.48498083343352    0.17706010530854
O           0.16018264578872    2.88033637614209   -1.70841249391534
H          -0.66272987143333    3.16276763895555   -2.09317506434324
O           0.96396231702385   -2.06339172729688    1.02598778474248
H           1.43603794834217   -2.87140859508051    1.22876835132656
O          -1.46834981507318   -1.50634178362796   -0.10086524434505
H          -1.20839185392986   -0.82651023670207   -0.75616360793989
H          -0.63107677460894   -1.85992245583649    0.25485986787391
O           1.19146556428070   -0.74891660571810   -2.94367688292687
H           0.50278049124007   -0.19292965048737   -2.52513650025880
H           0.74261529058156   -1.53268195667382   -3.26505689799001
O           2.40332063290923   -0.56197751869816   -0.51532188474582
H           1.56379258126823   -1.53287317023542    0.41788676312094
H           2.17823102634987   -0.70686624889045   -1.45349898193467
H           1.97902370627876    0.28546540121398   -0.28522922749291
O           0.51654497287505    0.18567046315621    2.53807605783520
H          -1.03178952859812    0.30085519462849    2.22498300918731
H           0.75245916530880   -0.69657963418799    2.19442308182407
H           0.81218698001552    0.80139696568764    1.84274510908329
N          -1.94999022183894    0.34593585066178    1.68139880008611
H          -1.94710953138818   -0.49867356336391    1.02907511165789
H          -1.88887164500262    1.19620660380720    1.05593796942527
H          -2.76379267355688    0.37602250015955    2.28489508800267
