    26
        -50.47126131  Gyration_radius:  2.42926860643 Dipole_moment: 4.303
 S          -0.84707195120304    1.54419001814380    0.74139722992892
O          -1.36588993984529    1.00197235760644   -0.50996382388788
O          -1.62275590276500    1.07414700977194    1.87990068393510
O           0.57352069189995    1.32059093383658    0.88795203630344
O          -1.05861988429229    3.10780399663785    0.67951226080873
H          -1.99476338887876    3.18737449688817    0.82872268913436
O           1.60222108080238   -1.67897548837379   -0.92387079784545
H           2.21698688204799   -2.19060159926231   -1.45033550680808
O          -0.26292675405421    1.52367555902768   -2.87301608908986
H          -0.73738205162442    1.42599260571792   -2.02217656048369
H          -0.70148519174316    0.93729918932023   -3.49178661598203
O          -1.12305159557167   -1.65384634026559   -0.66147517799328
H          -0.17858612848911   -1.76413339987733   -0.88147031397124
H          -1.29960103343926   -0.69353659891863   -0.73793380336375
O           1.92026054796166    0.84595441478742   -1.39838825737090
H           1.54715215636442    1.17225075305614   -0.55847975581621
H           1.76389845745839   -0.71527676934450   -1.16088552600474
H           1.29789068873337    1.15353104497909   -2.08388111646532
O           1.63103831459432   -1.02225032098279    1.74306310834850
H           0.12040837952064   -1.40072290883366    2.03214978140253
H           1.79083272901579   -1.38997937087242    0.85346837402009
H           1.47498070011364   -0.07300980904011    1.58625999350066
N          -0.94242792675495   -1.44910864524198    1.93944880359793
H          -1.13702028548125   -1.71758683689214    0.92507752801587
H          -1.30047866359053   -0.46066571307595    2.05201574984204
H          -1.36712996079026   -2.08508857878835    2.60469509625932
