    26
        -50.47126124  Gyration_radius:  2.42929449443 Dipole_moment: 4.301
 S          -0.12190135591428    1.90549051009141    0.07021161853948
O           0.08357325877424    1.27143166867303   -1.22780451207733
O          -1.52752955913757    2.21458188349228    0.28784218978940
O           0.46902234344718    1.14746084208690    1.14989489365773
O           0.63187572568442    3.29216780692826    0.02099832233289
H           0.05221438485257    3.81389886331096   -0.52376822575097
O           0.59117596224369   -2.40635379960978    0.31831957491351
H           0.99713685784287   -3.27346997555567    0.33165500298711
O          -1.10027813717474   -1.11654332903645   -1.40573724710592
H          -0.48691554424914   -1.69054757410572   -0.90888492509189
H          -0.63967546237771   -0.25699450026794   -1.49635649382146
O           2.47314204036062    0.47008086951308   -2.07615686541406
H           1.61698078668125    0.86780715051965   -1.81650328722561
H           2.30302628550969   -0.03083281008533   -2.87563571298927
O           2.41623913015308   -0.57405463694016    0.43526214704977
H           1.85057806322038    0.13333672504965    0.79683878465084
H           1.34571749294832   -1.74259817336860    0.35144303038610
H           2.66041895957844   -0.26601661824949   -0.45765139331493
O          -0.72114204976903   -1.00603192527419    2.28335602116290
H          -0.26699568348113   -1.67166332980215    1.73304704856075
H          -0.20428282084148   -0.19059100052093    2.14961825228523
H          -1.95840216570213   -0.57469950227129    1.39347144203615
N          -2.52638369049623   -0.18368171650499    0.57794060626909
H          -3.52433940375570   -0.31931717248621    0.69228070449773
H          -2.14088279377928   -0.65224411752828   -0.29999590975529
H          -2.27237263464749    0.83938389191100    0.49631493344816
