    26
        -50.46824850  Gyration_radius:  2.38810217077 Dipole_moment: 4.294
 S           0.26892828920615   -0.78274774861415   -0.99367176780882
O           0.87230565017054   -0.58340555386896    0.44669593701394
O          -0.50605730818766    0.43856065941871   -1.25880125610885
O           1.43601275000602   -0.84334642189541   -1.86325041222785
O          -0.54370085858524   -1.97138122135243   -0.97795764052043
O          -0.98290227643409   -3.15746580644045    1.37877059747112
H          -0.33099016660871   -3.84676604595053    1.50919644218214
H          -0.84826581268918   -2.82546008735614    0.46729256107794
O          -0.45895461625244    2.12282274445650    0.84437588059561
H          -0.59169161181637    1.57058988743310    0.04860042887116
H          -0.87517490327344    1.63822280772271    1.56395339380100
O          -2.80244630629424   -0.44658168011775   -0.22662547647372
H          -2.08936998966156   -0.04772300711918   -0.76006205508784
H          -2.82137164496354   -1.37006943302846   -0.49362871880008
O           2.17172403874127    1.86985757352990    0.79641566685266
H           1.24035034043640    2.15026645018745    0.97651263989410
H           2.17308363796194    0.92452771282930    0.99597317935012
H           2.09594408100179    1.85139786917255   -0.75509522603887
O          -1.22767209118880   -0.52878671917957    1.90975606502362
H          -1.94829774724939   -0.42398179909820    1.23976223805866
H          -1.23080968941918   -1.48318539472799    2.10437063760988
H           0.08252630966018   -0.54466310288501    1.08296112446817
N           1.82664220314116    1.66202026919031   -1.78225844499193
H           1.81090344634410    0.57633452916324   -1.90238933519767
H           2.43494887529252    2.13081075904788   -2.44563349107191
H           0.84433542067154    1.92015275948696   -1.90526297794060
