    26
        -50.47126129  Gyration_radius:  2.42925703985 Dipole_moment: 4.302
 S           1.80210883298353   -0.52331996959547   -0.35969373346495
O           1.88073529409115   -1.94420207188835   -0.05361126744879
O           0.91260875615059   -0.27606445808698   -1.48959152344040
O           1.46876222624652    0.28967708380633    0.78809925882655
O           3.24939788682796   -0.09083676684211   -0.81995666665299
H           3.49549613820630   -0.80517206835600   -1.39797222430782
O          -2.08912450190823    1.11511208429721    0.79501351180360
H          -2.83062338218848    1.69788098192727    0.96065393350449
O          -1.62441816617004   -0.92861894442988   -0.96669637882519
H          -0.74358374627885   -0.67087261613401   -1.30853729460836
H          -1.92622489957035   -0.17360866358989   -0.42683090903171
O           0.39700245957106    2.16576228743646   -2.40814880054485
H          -0.31356289182116    2.05285822317257   -3.04171445681857
H           0.67553118328090    1.26400890215168   -2.14770715393474
O          -0.51735467965175   -0.32947710447805    2.52331645520222
H           0.32163634758774   -0.01048364071238    2.14342003356718
H          -1.20030129169861    0.21828960488792    2.09242867520509
H          -0.56947783673197   -1.68870638885890    1.71194075905164
O           0.02818897232575    2.50724476741963    0.26535747210899
H           0.14257904235505    2.61763404476758   -0.69721791983618
H          -1.30651987473399    1.70980278273548    0.58308329529034
H           0.68202558434883    1.82908628149256    0.51789089119179
N          -0.51270245068111   -2.38218095589694    0.90167695531817
H           0.48593433021331   -2.36004577859970    0.55503990862505
H          -1.10454953591356   -1.96636536307427    0.11704172791887
H          -0.80356379684567   -3.31740227356812    1.16271545130664
