    26
        -50.47150101  Gyration_radius:  2.42621441237 Dipole_moment: 3.429
 S          -0.62141302817592    1.58512615394010   -0.79987731715625
O          -2.05349275337699    1.63790552830394   -0.55024127397458
O           0.13825589664061    1.68132943218289    0.43776543762129
O          -0.23252539992911    0.44458288465327   -1.60488019315141
O          -0.26078966357381    2.86228746365826   -1.65577402092347
H          -0.58046559897402    3.57175425696107   -1.10868279394790
O           1.18148906538458   -1.80507704305946    1.26885407567296
H           1.81251353362728   -2.42013395900402    1.64357724747457
O          -0.77726382845618   -1.99417744520363   -0.63393808061560
H          -0.04569978533230   -2.09882189706654    0.00339223759665
H          -0.54437486836497   -1.20423467835500   -1.15990714662864
O           2.30703292771388    0.20003659434455   -2.37190152271896
H           1.35966763259105    0.37603752302360   -2.20435409829097
H           2.33903682432002   -0.54802334136289   -2.97035027547314
O           2.42998433087690    0.27095074653205    0.34882473392736
H           2.61938208133597    0.21925404871333   -0.60571868323743
H           1.69311008717557    0.90655922215867    0.42149759352827
H           1.72029452917575   -1.04094368443155    0.90177230889180
O          -0.48999111256791    0.01805299844722    2.46819280213572
H          -0.20863819721007    0.76762935951539    1.90819370231978
H          -1.78469211607129   -0.36889088156079    1.64598524483750
H           0.13864849072350   -0.69598222530767    2.25273561491634
N          -2.42446540394762   -0.56050987334289    0.81201481593399
H          -2.43908092203875    0.33539344421022    0.25031854311097
H          -3.35562939047900   -0.85215664528999    1.08626905516839
H          -1.92089332107934   -1.28794796263452    0.21623199299098
