    26
        -50.47150019  Gyration_radius:  2.42646625114 Dipole_moment: 3.439
 S           1.43310520656032   -0.75262025450634   -0.95833272624254
O           1.38411273461927   -2.18611196591528   -0.71564681358789
O           0.26183554072922   -0.29730727851076   -1.69243087569868
O           1.66675482900270    0.01506852174551    0.24844491892583
O           2.68362846162239   -0.49142541461450   -1.88683566144786
H           2.51504180354884   -1.06917393999131   -2.62349158173619
O          -2.00887507033876    1.23815602366352    0.83647634310690
H          -2.66330733238598    1.89162004005386    1.08475186956389
O           1.98536388816540    2.65411462220841    0.06936721117832
H           2.23178893686069    2.95842823870809    0.94415089496808
H           2.00715594439007    1.67694238722823    0.10370832015976
O          -0.14107584545784   -0.21105389114079    2.21520609243860
H          -0.84192781602482    0.38088875195048    1.88218984473878
H           0.63009492689294   -0.04025387199379    1.63990164355298
O          -2.18672636402782   -0.97596940175845   -0.78282741838056
H          -1.40661279678071   -0.74346564352874   -1.32316535908738
H          -1.45211895532067   -1.96976387834468    0.20447087763133
H          -2.34625748274300   -0.18563348139626   -0.23383025158546
O          -0.47316608739402    2.20229805396953   -1.01457042465877
H          -1.42676535225918    1.67481604516633    0.14399406445459
H           0.35289171042182    2.58936729177898   -0.67191762121533
H          -0.20305474538507    1.35272728272642   -1.41156674629927
N          -0.70098187613497   -2.37339357560075    0.84823432370154
H          -0.50619089788647   -1.62185318018679    1.57990427135604
H           0.17155217352619   -2.45445835605601    0.25636530941878
H          -0.96626550420328   -3.26194310565363    1.25744950473947
