    26
        -50.47150110  Gyration_radius:  2.426266338 Dipole_moment: 3.425
 S          -1.78881650587954    0.31248753522076    0.49251708199707
O          -0.92268949416219   -0.39735455527183    1.42217134453248
O          -1.88320155204024    1.72502548965037    0.82654759646938
O          -1.42531206394271    0.08513361635210   -0.89181095137467
O          -3.23633097797082   -0.29482927838808    0.66535126165843
H          -3.44206415263702   -0.07774859951181    1.56834630148517
O           2.34644684821452   -0.80614436402502   -0.33067621290847
H           3.14245723293602   -1.30812774954286   -0.50760727646925
O          -1.36012895189733   -2.40916673097614   -1.82536387705134
H          -1.52463901194174   -1.49810164964534   -1.50984808579213
H          -1.20378411620897   -2.34146801012245   -2.76863005928162
O           0.92443521251746    1.07108597429527   -1.72547340293668
H           1.53516223662098    0.39579382936276   -1.37417822968377
H           0.03243085563903    0.68681024647960   -1.61835508590395
O           1.54427991890495    0.58764268626514    1.89879857421723
H           2.02298049007766    0.07849600274822    1.21828803857357
H           1.08451603009635    1.89140855281373    1.13027490695633
H           0.66701672983715    0.16052063039629    1.95015531367579
O           0.40631108518400   -2.42332556577375    0.24867772116787
H          -0.12564055841931   -1.80025472317672    0.77890874485008
H          -0.15781098639412   -2.64295997104045   -0.51504349626372
H           1.62599760937548   -1.48086744211976   -0.14476003932377
N           0.57502124534003    2.51711607926545    0.42994349630220
H           0.79239910079686    2.11646319487299   -0.53447258160252
H           0.82731694414607    3.49499388266475    0.51618278272356
H          -0.45635316819356    2.35737092920868    0.60005614398143
