    26
        -50.47150104  Gyration_radius:  2.42623585336 Dipole_moment: 3.423
 S           0.87578477668351   -1.34048655292684   -0.98593547595890
O          -0.38508175486635   -0.81647292107990   -1.48969693709494
O           2.01242908955050   -0.70119624963756   -1.63041997259653
O           0.95601565075966   -1.30442991421503    0.46062560428675
O           0.92516959164105   -2.86775245696368   -1.38445209555641
H           0.92110170578598   -2.83102218750248   -2.33500606957905
O          -1.58324766843744    1.60700285881564    1.08337441815013
H          -2.29523245180453    2.03410966512462    1.56044420002554
O          -0.89961067241816   -2.56802093044194    1.89543338524931
H          -0.61667469646688   -2.51839576216891    2.80988808046442
H          -0.15360751885027   -2.23165132127488    1.35983848621753
O           1.05166605052604    1.10648884236441    1.62935518819800
H           1.07257470641219    0.16057157902424    1.38509404388847
H           0.10827534239762    1.35465715548047    1.60039689302968
O          -2.30836154518543   -0.78345446684264    0.39375230631932
H          -1.71665849703170   -0.87956956798333   -0.37628417950823
H          -2.01794680238118   -1.47367082605730    1.01731467548996
H          -1.90601770628889    0.67985518958608    0.87109797587135
O          -0.75053045858246    1.85726444218470   -1.52445958665005
H          -0.75435821460768    0.89676585496873   -1.70355646052618
H          -1.17559637514115    1.94330548425312   -0.65072923878025
H           0.79199989132877    1.99176360106805   -1.19992150472169
N           1.75834477366442    1.76459265670142   -0.80505700309710
H           1.62511930217734    1.64185269508282    0.24615667270329
H           2.45438262649648    2.46465374933519   -1.03478161016880
H           2.01006086464841    0.81323941310256   -1.19247181565792
