    26
        -50.47150104  Gyration_radius:  2.42619154397 Dipole_moment: 3.423
 S           0.35211714801732    1.82495538660230   -0.28959976157338
O          -0.83268459724166    2.37688922278842   -0.92789841285146
O           0.06650699907454    1.37681009868808    1.06540505421430
O           0.99772438559945    0.80354716022743   -1.08968788664955
O           1.39569135738615    3.00402679973434   -0.16847399554703
H           0.90783046262167    3.65891919166239    0.31926630478954
O          -0.30672021665944   -2.33098635352815    0.85856229446724
H          -0.20761897488872   -3.20276905636509    1.24209353633477
O          -0.43953948352293   -1.37507560652466   -1.70270441971444
H          -0.36782436007340   -1.87553291740621   -0.86795615377981
H           0.21067669225695   -0.65030924140144   -1.62064241773484
O           3.29630212424492   -0.24607101812523   -0.24578914668631
H           2.53274412845638    0.24485659486259   -0.60996404421028
H           3.61027707747736   -0.81425894441990   -0.95100292136763
O           1.54121911249517   -0.76143696827444    1.77338886092907
H           0.44940793839731   -1.77840250424838    1.22160831896071
H           2.31889388416655   -0.69486988429787    1.18987843101967
H           1.06570115662774    0.08178100185717    1.65008391670321
O          -2.02958722354371   -0.27597622376145    1.46201870611764
H          -1.32794847479404    0.40035539897482    1.53259813934489
H          -2.45532229625014    0.03521093816068   -0.02906656472104
H          -1.54681600974827   -1.12050893007890    1.38990864900573
N          -2.37440288730325    0.27185851750549   -1.06786334060115
H          -1.86018900398088    1.19480151768760   -1.11230221409208
H          -3.27274874038820    0.31457473610647   -1.53527029608128
H          -1.72369020843501   -0.46238890643197   -1.48659064628317
