    26
        -50.47000465  Gyration_radius:  2.46311963922 Dipole_moment: 2.750
 S           0.13599418736011    2.15813870558123   -0.48034611866665
O           0.14272278459205    1.89567812669808    0.93812191463653
O           1.44250219400536    2.27389056936341   -1.08077976276167
O          -0.73932124005750    1.20649948927524   -1.18312570762138
O          -0.56075699356719    3.57375546297835   -0.70456920858667
H           0.19732234690883    4.12839744023221   -0.85451649569584
O           1.13385122086474   -1.62539510202899    1.56583568874800
H           1.86091515621975   -2.05074436619144    2.02193204398052
O          -0.63008090855200   -2.53099371739524   -0.34200230633233
H          -0.22969345314855   -2.14792855779570   -1.14021123841901
H           0.03208804033550   -2.41431437405272    0.36436594663433
O           0.40855568570521   -0.87558829293165   -2.30095531474261
H          -0.02577457138285   -0.06220974633358   -1.94782552470159
H           0.48566131510986   -0.75041805181454   -3.24748157041927
O           2.20619056842864   -0.15955241917807   -0.32320422633079
H           2.05837764206504    0.79417132875785   -0.46229546039724
H           1.55017936162383   -0.99083396840691    0.92331350135129
H           1.82714381139135   -0.58000768941092   -1.11061329565744
O          -0.75720664227894    0.06192886642977    2.61823146993504
H          -0.39343370405239    0.87583910340254    2.21520525074131
H          -1.67601426537921   -0.24748356954261    1.39601891453692
H          -0.05858569104114   -0.60276444396802    2.47763886016785
N          -2.05464077148714   -0.43763740179940    0.40923143784552
H          -1.63757067708508    0.29907319925111   -0.21853016051679
H          -3.06693112606981   -0.42387862850385    0.37370877402377
H          -1.65149426048070   -1.36762194251662    0.09285257809915
