    26
        -50.47150108  Gyration_radius:  2.4262307689 Dipole_moment: 3.424
 S          -0.63337863846385    1.60100144827716   -0.75880622054540
O          -2.05607445662763    1.66284591086108   -0.46226791059416
O           0.16668756367615    1.67262447629368    0.45491594108324
O          -0.28132680223394    0.46866071994222   -1.59188336499366
O          -0.28832848621457    2.88709218406334   -1.60786450868922
H          -0.58150742375381    3.59133569428518   -1.03951307649223
O           1.20584683360842   -1.83229622500083    1.20607486536840
H           1.84306196629522   -2.45897573160464    1.54984609919798
O          -0.81452126074233   -1.97810188545157   -0.63457008575010
H          -0.06369741159840   -2.09712754984582   -0.02257344141077
H          -0.59197526414223   -1.18333940851233   -1.15770107791276
O           2.23046460407937    0.21290455122747   -2.44207702352745
H           1.29048506057063    0.39462573488265   -2.24187435363811
H           2.23606551592457   -0.52614833544839   -3.05242201020856
O           2.44224045564025    0.24540386838413    0.27379897232451
H           2.60030307286389    0.20501079596212   -0.68697711083198
H           1.71341516707159    0.88584522485352    0.37857056349211
H           1.73940061885976   -1.06781913829439    0.83216338130281
O          -0.40987865894242   -0.01178256868484    2.48313091316410
H           0.20508974357415   -0.72822192366443    2.23808630980406
H          -0.13997749894113    0.74264326264060    1.92397969859655
H          -1.73389728224852   -0.37591140929957    1.69794241857379
N          -2.40179667730425   -0.55066006756708    0.88253910581356
H          -3.32615701928790   -0.83838054745910    1.18272627123056
H          -1.92380269172399   -1.27405666394113    0.26114504216374
H          -2.42674104995069    0.35282758309613    0.33361060246588
