    26
        -50.46824853  Gyration_radius:  2.38803067042 Dipole_moment: 4.297
 S           1.26122761340866    0.26999741987956   -0.09148442969465
O           1.99130446395719    1.06716615900000   -1.06788533260446
O          -0.02838941013135    1.12032091453330    0.21236848370117
O           0.76790555114041   -0.97085131525220   -0.70743236165893
O           1.95155757293863    0.04412373635616    1.15188942765788
O           0.46973097655435   -2.32602189834299    1.57241896509585
H           0.66242773239472   -2.01487323063540    0.66791755834709
H           1.22722037171318   -2.04651525995620    2.09455759102949
O          -1.92380238874619   -1.01678076522231   -0.83511901602940
H          -2.21925764604224   -0.98106653840725    0.07987038928430
H          -0.95422289334529   -1.13393459487583   -0.79033523088228
O           0.73957198237202    0.80067145543478    3.41280682573554
H           1.03215013205527    1.68235256836561    3.64560460336121
H           1.28279293238210    0.52838970198095    2.64470773034733
O          -1.75888051679919    1.36419355140747   -1.97163639826292
H          -1.36627886032869    1.80040608954917   -1.20403377162996
H          -0.49019906658501    0.86959460596057   -2.71908706154162
H          -2.06162722217436    0.49052575304274   -1.62028122574635
O          -1.22781871100428   -0.32045268618191    1.95559529071534
H          -0.55978788622217    0.59546682626319    0.89952729145430
H          -0.73963531666021   -1.17869024924503    1.89101017021932
H          -0.82674808199369    0.11522110180154    2.72894278187914
N           0.45569247391900    0.42258345806324   -2.98184882535560
H           1.18872163541427    0.81170566416304   -2.27163142282261
H           0.71339174952287    0.57830980094451   -3.95097028010183
H           0.41295279226179   -0.57184225863007   -2.74547177249971
