    26
        -50.47150105  Gyration_radius:  2.42622694284 Dipole_moment: 3.424
 S          -0.00769237862050    1.27101514625688    1.38693339302347
O           0.63090818550905    1.61845572401536    0.12605472746381
O          -1.36297370978473    1.79432764335231    1.45853820449290
O           0.06322828938590   -0.14752997437737    1.67490873516550
O           0.81790754005917    1.98614293921362    2.52754440392980
H           0.69756642197210    2.90658710056985    2.31975688166428
O           0.42377622807193   -1.43938549073189   -2.00340451540024
H           0.78835813272096   -2.01467157699594   -2.67649389693119
O          -1.31722656313202   -1.79996792413684    0.07748665313282
H          -0.71647647327752   -1.84773649584785   -0.69012990699225
H          -0.79829241008545   -1.35973988179832    0.77871432168124
O           2.44721774199099   -1.33025164677214    1.79632600870923
H           2.29039536368343   -2.22670966638331    2.09715188191176
H           1.59533855664938   -0.85844505527402    1.88800346094155
O          -0.67250449857154    1.07555861126504   -2.17382014919074
H          -0.11752023217249    1.45436582978805   -1.46447883748076
H          -0.28996615115549    0.19316417766578   -2.33675384726214
H          -1.94534858577330    0.76880280698431   -1.28648696722355
O           2.34803890502326   -0.27724650223512   -0.71431644496950
H           2.59352772270075   -0.73294510769208    0.11140095343025
H           1.20935179607516   -1.04343582556733   -1.51870502237326
H           1.85043725389152    0.51055361832694   -0.42435015591859
N          -2.53721203443473    0.45576104869961   -0.45382593366318
H          -2.21456045777171    1.04306766216153    0.36419011705168
H          -2.24332490290121   -0.54827175057520   -0.24544008683162
H          -3.53295375004854    0.54853459004950   -0.61880398838354
