    26
        -50.47150103  Gyration_radius:  2.42636498306 Dipole_moment: 3.423
 S           0.76416927406281   -1.52225369313354    0.79849315706149
O           0.50849015584010   -1.54052558985376   -0.63425856481502
O           2.14918396041545   -1.18387712083844    1.08699214433560
O          -0.17961554694843   -0.69423592178804    1.52221262590164
O           0.53709185326675   -2.99541930648102    1.32018005432265
H           1.20817315065455   -3.48246300583638    0.85402007538760
O          -1.18058045443863    1.69555957592052   -1.41341251910882
H          -1.80789595497928    2.20800875092623   -1.92412267990075
O          -2.78456332297085   -1.21709440425981    1.32540433787489
H          -3.22591714052264   -0.63930363302957    1.94995296177916
H          -1.82631719798858   -1.12631042248117    1.49897543195282
O          -0.08805566396130    1.94917434088992    1.08352433255100
H          -0.23699575878426    1.03685128153520    1.40025542083262
H          -0.57108056949232    2.00563121096023    0.23742518875465
O           1.24391132600672    0.60003775636759   -2.10414152218683
H           0.39986096896406    1.08691692299601   -2.05926887980204
H           2.03042496236297    1.10570356209896   -0.82842240249111
H           1.02865771494399   -0.29224618760814   -1.76926724440067
O          -1.99521542894851   -0.75852329294957   -1.24196088915067
H          -1.56105634130598    0.76794042138426   -1.35315502710463
H          -1.12270086570008   -1.17406412966922   -1.10654749321391
H          -2.48957623639454   -0.94826650850551   -0.42392786808847
N           2.28080015697629    1.26920767771143    0.19731690110132
H           1.42225754137658    1.72057210900223    0.64115301992196
H           3.12214688020440    1.82177394060238    0.31618065827952
H           2.37440252733744    0.30720566606842    0.62639877018940
