    26
        -50.47000207  Gyration_radius:  2.4631436901 Dipole_moment: 2.815
 S           0.52539878946723    2.14345065084995    0.19308213662483
O          -0.08581213480313    1.60161053175916    1.38166546904253
O           1.96793695618116    2.12554134545711    0.18861431425529
O          -0.06061431527146    1.53977226576539   -1.01495542507894
O           0.12265990022493    3.68280386757592    0.10290922836540
H           0.94378875975831    4.09914946877371    0.34211011385080
O           0.21729906168738   -2.09331907747130    1.39860000465945
H           0.64413073268011   -2.73323622967290    1.96945398568761
O          -0.66476466347312   -2.24215191837090   -1.20349981305716
H          -0.35095288718157   -2.39895970913267   -0.29359674436096
H           0.06679964628449   -1.79135442155773   -1.65712679714759
O           1.24705438898119   -0.45869749682308   -2.10844996667293
H           0.78338517272129    0.33568851690524   -1.74919166441341
H           1.72146597169064   -0.16453299112143   -2.88689749357766
O           2.11304026024895   -0.51171428128110    0.51889042216179
H           2.12692540359987    0.46063273852853    0.58859915016642
H           0.92109399716568   -1.43449080634609    1.15496181335939
H           2.06000924286170   -0.68486557811002   -0.43384725124147
O          -1.77483839490630   -0.32118913023128    2.04839974494012
H          -1.20158484785611    0.47154143878082    2.04442218232625
H          -2.12142973532090   -0.19478793335707    0.53255841136229
H          -1.14685992587320   -1.06569341591919    2.01723391562892
N          -2.06835973004711   -0.10650859069257   -0.53641611829667
H          -1.65939627054107   -1.01426317067246   -0.90551537314468
H          -1.35967930858294    0.64657559944289   -0.73999855588890
H          -2.96669606946828    0.10899832697995   -0.95200569945810
