    26
        -50.47000341  Gyration_radius:  2.46332422823 Dipole_moment: 2.777
 S          -0.60427493103843    1.93734706962610   -0.88936369176580
O           0.11823141721322    2.08672021043431    0.35003494264489
O           0.20840027104947    2.01516775782560   -2.07880022714269
O          -1.45880897951954    0.73947205851548   -0.85327598288803
O          -1.63031218102357    3.15175471766125   -0.99828161363778
H          -1.19317650019157    3.70235898631227   -1.63903483259955
O           2.07197239547311   -0.98811636085761    1.05558821118602
H           3.00369083831764   -1.18888558506893    1.15147858543206
O          -0.11166484525625   -2.57574293617472    0.52429325502567
H           0.75507882324282   -2.19534207945232    0.75893905101120
H          -0.22734120423365   -2.39528286742455   -0.42341468402280
O          -0.51464183995053   -1.44363864572942   -1.96844642631517
H          -0.91633245427702   -1.58477799228812   -2.82652228978305
H          -0.91033321602474   -0.61319607961018   -1.60968921848167
O           1.77356451210005   -0.01273596809268   -1.35836274899553
H           1.18106278579165   -0.67567592133753   -1.74561980041840
H           1.36283268743477    0.84201103767453   -1.58510516239677
H           1.98317815467425   -0.52121149195988    0.18212694164214
O           0.55184819376508    0.72051623054004    2.57270448939619
H           0.48834094578559    1.42111392580753    1.89281307466812
H          -0.72893109831626   -0.01508604893467    2.07026935763628
H           1.23803988341302    0.12011068162603    2.22883751157104
N          -1.46596752748697   -0.51466577416868    1.46985643218054
H          -1.05293105617700   -1.44909034578035    1.18043536212162
H          -1.56954115916798    0.05361595320302    0.58832295216548
H          -2.35198391557734   -0.61674054239442    1.95021652182120
