    26
        -50.47000472  Gyration_radius:  2.46318712096 Dipole_moment: 2.751
 S           1.94907469593590   -0.33497659352993   -0.99822991359932
O           2.00624256525155    0.73644356646643   -1.96249086722620
O           2.08533840953748    0.08013156681629    0.37660226156967
O           0.77139023378967   -1.20100135502295   -1.16765003735335
O           3.18562644521074   -1.28011440478785   -1.34057426249606
H           3.74051076854718   -0.68333355748108   -1.83120456875474
O          -1.03540487504284    1.74283577690509    1.50638176875128
H          -1.25984866329569    2.62073550295035    1.81694808536946
O          -2.57163616784651   -0.29047525685384    0.47000229979697
H          -2.38906907480643   -0.17651288227445   -0.47753014424777
H          -2.21086745680307    0.50536007389739    0.90320818850389
O          -1.43291514245326   -0.07052164413997   -2.04260018970120
H          -0.59348902728024   -0.52042995157906   -1.78227610963692
H          -1.56467344264081   -0.26273247619600   -2.97171785464795
O          -0.05612148177493    2.04308035850272   -0.90536457134505
H          -0.56757302580044    1.87287180172363    0.63847419562825
H           0.80776611206970    1.71606183966597   -1.21781117234134
H          -0.70550309117678    1.54352003102227   -1.42427167059697
O           0.71015634715439   -0.05143467780952    2.63183223828572
H           0.00286715821295   -1.19549684462835    1.84127294624299
H           1.41071764687791    0.06211079938787    1.95836588686343
H           0.09378636319296    0.68258904258572    2.45628206114711
N          -0.48025069556994   -1.78245543382979    1.08280397580790
H           0.08961458450072   -1.66389882196450    0.20417924904963
H          -1.42395695472699   -1.33399321792602    0.89348267053817
H          -0.56178226089793   -2.75836326225436    1.34188552431827
