    26
        -50.47000441  Gyration_radius:  2.46316416617 Dipole_moment: 2.755
 S           0.42901300679788    2.16212390066124    0.22054937230851
O           0.12677648120500    2.41364808572528    1.60846274128672
O           1.61460578010242    1.37266758935166   -0.00762160434066
O          -0.71362610629624    1.61588171059988   -0.52885860686581
O           0.67476025115968    3.59760322507370   -0.42666193839004
H           0.86527052712000    4.11665406374508    0.34734812685573
O           0.95650575933144   -2.17566817686893    0.85520638626205
H           1.31444298916326   -2.79102730101312    1.49615540774602
O          -1.39522893297675   -2.15595123800761   -0.57366788043193
H          -0.60887021379977   -2.36537741634463   -0.03633476520695
H          -1.91036629955111   -1.52340802784698   -0.04580924518061
O          -2.37089161933209    0.05223276905734    0.77923931632911
H          -1.79760681496310    0.69409958106956    0.29527852115091
H          -3.16935736477144    0.52701008526308    1.01295088160347
O           2.28759984319968   -0.90150245360863   -1.17809243690555
H           2.00496689077956   -1.50590783874539   -0.46783226972648
H           0.91854506940522   -0.65274162591613   -1.88347157055732
H           2.29511220717543   -0.02160177579942   -0.75044202435410
O          -0.02350361098817   -0.16967109932695    2.22737539638950
H          -0.96002179801013   -0.22779824282767    1.98223746234439
H           0.68407840561828   -1.37171559285983    1.37314011896668
H           0.20116223184872    0.77159201877626    2.10776974915680
N          -0.10872759801464   -0.42162709998469   -2.09467300795184
H          -0.28793542366341   -0.32637872285681   -3.08713043012064
H          -0.32758991367027    0.46983803653203   -1.57683636071771
H          -0.69911376662329   -1.18297448381168   -1.64828132965594
