    26
        -50.47395391  Gyration_radius:  2.40824029985 Dipole_moment: 3.053
 S          -0.53080941605496    1.41636176066236   -0.90213251697941
O           0.84382937994271    1.33031694996444   -0.42682779422882
O          -1.10023251307860    0.07577892827252   -1.08521421087238
O          -1.35653871555489    2.23719395158097   -0.04514791364962
O          -0.50050918575094    2.08555076036499   -2.32011712874284
H          -0.08896063501568    1.41636655508269   -2.88884186520196
O           1.13729646947429   -1.98462514830985    1.16300198209089
H           1.69858947962119   -2.72751506759986    1.38842099993506
O           0.14329290451523   -0.38963910675598   -3.28731423537559
H          -0.41379905306210   -0.74191852885791   -3.98387809312357
H          -0.39569467351731   -0.40045383257355   -2.46001604398900
O          -1.56694327014155   -1.42984642976000    1.06128501073551
H          -0.67860701707716   -1.81032701143366    1.17495506844232
H          -1.53271245715725   -0.99189362299611    0.18610340826725
O           1.94857585234195   -0.96794219667423   -1.13128777383329
H           1.57523790998946   -1.11522298443960   -2.00711626139190
H           1.66649893915335   -0.05906890149355   -0.89387922656099
H           1.43003882998131   -1.68047389876891    0.26514454176447
O           1.31102643886454    0.61137325576811    2.11461367847363
H          -0.22973586201865    0.86572600917677    2.38443095125293
H           1.37712101783040   -0.34577150054650    1.94381768394584
H           1.33403258358637    1.01753176497674    1.22509612511216
N          -1.28375144359437    0.90392244123937    2.21620042365057
H          -1.56016609157205   -0.07613814129130    1.89801902313915
H          -1.42234020661160    1.54022160806298    1.38468880706390
H          -1.80473929508990    1.22049236634919    3.02599539006584
