    26
        -50.47000428  Gyration_radius:  2.46326784348 Dipole_moment: 2.757
 S           0.32871713843904    0.60984415258178    2.10455205712125
O           1.75308224570174    0.83228812321210    2.15690639398375
O          -0.40963781069878    1.58826718169729    1.34398839910488
O          -0.02638913443635   -0.75477172207679    1.68322632370222
O          -0.16965421877315    0.69817385466795    3.61554635502234
H           0.54780797886701    1.17714947268622    4.01632762001636
O           0.16786205664198    1.06321600501984   -2.28542107509085
H           0.55351691510023    1.58457488274043   -2.99042143947343
O          -0.30875505411187   -1.63515418154399   -2.03730211037330
H          -0.12057387931223   -0.72377127749263   -2.32894944447948
H           0.44510065554242   -1.89130989674486   -1.48030782361363
O           1.57452246564890   -1.93571686132544   -0.03270691382852
H           2.13568018837346   -2.57185545725006    0.41227263202196
H           1.00504986530231   -1.53153871263147    0.66530826936133
O           2.04712490012921    0.75269688227451   -0.48605129298197
H           2.14753225947330   -0.21182862967840   -0.49806820665916
H           0.84870288681278    1.04002375206226   -1.56091826330463
H           1.97749591234568    0.97773161040391    0.46017466137642
O          -2.02471168681158    1.66620974936025   -0.74886180081781
H          -1.34471801540423    1.61659338187434   -1.44508094956925
H          -2.15481264722552    0.15405699666364   -0.38818893073771
H          -1.51860998164794    1.87724766923836    0.06138699725029
N          -1.95265841654270   -0.86568740195010   -0.11871081485501
H          -1.42637150366693   -1.30548026050242   -0.92937809344375
H          -2.79424188889297   -1.37752565789142    0.11778879719921
H          -1.28106124102991   -0.83343366541689    0.69288864308110
