    26
        -50.47395398  Gyration_radius:  2.40836822953 Dipole_moment: 3.051
 S          -0.57671943174771   -1.56914275020735   -0.55266534984254
O          -0.47281409007786   -0.39157016578271   -1.42308265374035
O           0.38618968392341   -1.48911247783968    0.53793236525123
O          -1.92748577055277   -1.76710591584733   -0.07713409095929
O          -0.19329499145927   -2.80928171650148   -1.43272762225768
H           0.63645081829311   -2.54764252905690   -1.86142794463381
O           1.17505957693075    2.09348538896602    0.90712519472457
H           1.81615818172780    2.76058583379509    1.15557721007274
O           1.66647715285158   -1.18603943121479   -2.60829458472995
H           0.87237613120127   -0.71372036821146   -2.25990157310452
H           1.63552926838940   -1.10971069849654   -3.56375611146651
O          -1.21875819045165    1.97927649268992   -0.46646207781619
H          -0.97879660411090    1.19071175366728   -0.99514735455265
H          -0.39330414526289    2.22654365497423   -0.01441625313683
O           2.44854656712584    0.02810600259110   -0.12687786270292
H           1.68777714892419    1.37135859531276    0.46011717592650
H           1.77807095217252   -0.61489322362795    0.18782749738830
H           2.56954512606758   -0.18589863143300   -1.05833584201157
O          -0.04572693887309    0.22825558382453    2.55246922719571
H           0.20269264095686   -0.53735649829659    1.99676669306720
H           0.43495514255598    0.97824391940629    2.15740759202180
H          -1.52725173995239    0.36771244437109    2.00651866106269
N          -2.33953954374589    0.42088589025688    1.31519033809405
H          -2.33404219528645   -0.49477410539226    0.78875722209727
H          -2.06988261559173    1.17640720786329    0.61173720248682
H          -3.23221213399019    0.59467575419357    1.76280293156402
