    26
        -50.47395397  Gyration_radius:  2.40831721803 Dipole_moment: 3.051
 S          -0.42617114548339    1.70879230654714    0.02372792829228
O           0.79869496742349    1.25474834558900    0.66917644273697
O          -0.81487607966235    0.79061447446321   -1.05372054760012
O          -1.50076029092267    1.91150991663530    0.96933782807283
O          -0.12011717204704    3.08890802607885   -0.65512019016037
H           0.47297197450184    2.86502598338258   -1.38911043398531
O           1.00032973761569   -2.36316964908516   -0.01642908664965
H           1.55587963560487   -3.13217132625657   -0.14963428117806
O          -1.64101377361599   -1.66031826498223   -0.41862220268908
H          -1.43954281736019   -0.78995445945663   -0.81961568747959
H          -0.77481458832607   -2.09715092426055   -0.34344843644027
O           0.95323660002944    1.64467875612347   -2.71402386587579
H           0.23621299173095    1.18091516839052   -2.21816224426681
H           0.61192328399332    1.81957685738122   -3.59304189531546
O           2.23933370302262   -0.23954958095172   -0.97095985689031
H           1.82920780959496    0.36463121581068   -0.31616192823986
H           1.46965030041286   -1.60530832113875   -0.45199027216141
H           2.09913883080723    0.19392779279841   -1.81983990360606
O           0.71333791302960   -0.87228809498062    2.30070241339692
H           0.90241394891172   -1.53908943285457    1.61563316329778
H           0.90993495761942   -0.01796381008636    1.86684955970064
H          -0.86370935067752   -0.71803084698997    2.28616443780163
N          -1.84715024180133   -0.50966752487386    1.92527096459008
H          -2.57073486557338   -0.70304493248767    2.60824998686670
H          -1.95267485578058   -1.08119425361722    1.03065295552245
H          -1.84070147303034    0.50557256883827    1.63411514226018
