    26
        -50.47395392  Gyration_radius:  2.40835176454 Dipole_moment: 3.053
 S           0.71532060466790    0.91957056350422    1.32031343461089
O          -0.67658647749856    0.49583630645081    1.39802297512656
O           1.48222078295128    0.02100430675803    0.44879811473770
O           0.84549343649021    2.30088295027567    0.91410650104092
O           1.33274366048328    0.78320515724579    2.75543343791595
H           1.37989927469642   -0.17436186637926    2.90250202699506
O          -1.27968840912971   -1.49971244596116   -1.64327267861083
H          -1.76258281075153   -2.21402279613416   -2.06080425371905
O           1.65091597890597   -1.87077957913874    2.18209115689910
H           2.53281689701988   -2.23460699240135    2.27947728416896
H           1.67455485051186   -1.27615171277061    1.39405924005199
O           0.96813857974597    0.01912848230274   -2.16423776700724
H           1.33360332310129   -0.05244275225330   -1.25854264269382
H           0.21624948866371   -0.59850151095964   -2.17004821787847
O          -0.90919726018311   -2.09184120155843    0.90025878770538
H          -1.10065314924693   -1.79471391774246   -0.71318741160244
H          -0.11759177536220   -2.45281940983007    1.31390076554741
H          -0.92577137996523   -1.15193307289924    1.18004119991606
O          -2.29415619976180    0.90075800373014   -0.70247811202551
H          -2.12393961739943    0.04392699461844   -1.13430755875149
H          -1.90685615633173    0.80230881297743    0.19031996737052
H          -1.17571792083891    1.86766412355316   -1.27319220550242
N          -0.20698407572714    2.26095245776757   -1.49146075364602
H          -0.23676890708994    3.09790042477694   -2.06246319563752
H           0.33199879838784    1.46153112651702   -1.94837685299205
H           0.25253843366918    2.43721754755151   -0.55695325200667
