    26
        -50.46547056  Gyration_radius:  2.52371711743 Dipole_moment: 4.994
 S           0.87589440560712   -0.05962180247633    0.08025819843461
O          -0.64804046865501   -0.42706392901329    0.09851643117625
O           1.52281609926810   -0.74300441230908    1.17113700274674
O           1.32889416737287   -0.44183448587142   -1.24350345550138
O           0.92886168392939    1.41118652285468    0.22681993440692
O           0.30692464258231   -2.24702479480677    2.99679400561574
H           0.30930571926052   -3.15680997707525    2.69740426118103
H           0.86205020475683   -1.74790681325874    2.36165007203324
O          -0.25935012646801   -1.33667810647143   -3.14227118765642
H           0.37813334826268   -1.08000607177917   -2.43670535969273
H          -0.31546155367248   -2.29224662856700   -3.11109786583782
O           0.71580968312285    1.40114399082198    2.88806386940047
H           0.84452054621297    1.56797300352238    1.93591003448697
H           1.37554877525886    0.73911364296034    3.11404435799661
O          -1.95222918986423    0.46543266965864   -2.15179438140681
H          -0.73312231600029    1.41806648092279   -2.24080684429819
H          -1.57836303898403   -0.26111077445984   -2.69510548745292
H          -1.83999304484691    0.15477839120478   -1.23848691583491
O          -1.37047274077937   -0.20118738254446    2.49288292674626
H          -0.98933856385302   -1.02144342882734    2.86442750579766
H          -0.75812780544081    0.51208505943005    2.79142550843326
H          -0.99651912640732   -0.33124714347118    1.07162386925686
N           0.25345566307862    1.85494902153776   -2.18241749018773
H           0.89985821912183    1.21874511354086   -2.65191475590108
H           0.54432692524257    1.80907043197934   -1.13275716599983
H           0.29461789189298    2.79464144249307   -2.56409705795041
