    26
        -50.47250317  Gyration_radius:  2.48723522791 Dipole_moment: 2.882
 S           0.60233518628288    2.18387796433583   -0.10577078317849
O          -0.15830903563990    2.47399640563299    1.09463302986304
O           1.93029998059856    1.66586110503960    0.19988668896205
O          -0.10578572392991    1.33938785098886   -1.04858002623349
O           0.81996671473254    3.57274035445280   -0.83605157617937
H           1.14669348542095    4.10686692519772   -0.12023978270411
O          -1.45585881818557   -2.18509973955453   -0.83386080820891
H          -2.17212353695867   -2.76562656884594   -1.09162611121736
O          -1.00581185026084    0.32866288883012    2.26169220193557
H          -0.65237173511134    1.15716930835374    1.84341846780770
H          -1.15026053102039    0.54071358572666    3.18501399045181
O           0.48714027582912   -0.95046078265457   -2.34954382773253
H           0.22198730551072   -0.03630098523836   -2.13781801260826
H          -0.22744734004905   -1.50643139130805   -1.98848111135003
O           0.21659440642439   -1.93563908151865    1.34016443121723
H           1.43229911860703   -1.36274483017520    0.47953562222619
H          -0.20351442569962   -1.16524412231362    1.76725316200462
H          -0.40115924243631   -2.20812004815325    0.63779746081380
O          -2.34453968613094    0.17280069021383   -0.17429167508862
H          -2.17853062992628    0.22032005852136    0.77868449280261
H          -1.63782283257137    0.71995925608843   -0.57218250117879
H          -1.87231304375429   -1.30084874127867   -0.61661223860720
N           2.05825438752046   -0.89991527331081   -0.24343320299742
H           2.08482464820024    0.14173174489839   -0.04263286119826
H           1.57395301526159   -1.01288995127548   -1.18481569263766
H           2.99149991728858   -1.29476662270175   -0.24213933697089
