    26
        -50.47000546  Gyration_radius:  2.46317182276 Dipole_moment: 2.733
 S          -0.35748451556696    2.01680886413223   -0.84416331291909
O          -0.33038016172105    2.00815763762440    0.59824361477185
O           0.90285166897882    2.33265983318343   -1.47065049323804
O          -0.96610691397062    0.78146847312878   -1.36247872832855
O          -1.35913650877487    3.16964474545018   -1.29941151152242
H          -0.74862828505563    3.86039296367897   -1.53374408016830
O           1.43676404823881   -1.02626625331322    1.80589783264842
H           2.23026859817555   -1.18845512623816    2.31733720942771
O          -0.01230542538568   -2.62882616918404    0.10285092229112
H           0.58395018392298   -2.24187918212651    0.77060029874372
H           0.31018813063987   -2.30364901068430   -0.75405804599345
O           0.66656444139437   -1.13127724424895   -2.12352072346919
H           0.74146613377801   -1.15105987767990   -3.07822269087235
H           0.04458041087941   -0.39513904768019   -1.90903822501617
O           2.19025197788322    0.30955312032755   -0.31861538552454
H           1.71173256360808   -0.42942674529294    1.05950108167431
H           1.94187087113703   -0.31467238632494   -1.01805954850368
H           1.82828172712397    1.16456411514894   -0.61660233708589
O          -0.82462880298687    0.32469493274537    2.57706989295595
H          -1.61085780800777   -0.39470459918112    1.43778544391177
H           0.01348556266246   -0.17130252466257    2.54457114639922
H          -0.64943873971608    1.12068360145210    2.03571506341578
N          -1.90659626924956   -0.83243083220507    0.50278617599658
H          -1.28865015007063   -1.68142719907376    0.34493194089377
H          -1.65531135864448   -0.13528098140573   -0.24661560767601
H          -2.89273137934204   -1.06283112759307    0.47789004713105
