    26
        -50.47250317  Gyration_radius:  2.48730953179 Dipole_moment: 2.885
 S           1.79545497227977    1.29861467083490    0.48395065270133
O           2.67441036000324    0.38127201077408   -0.21572233492633
O           1.15500643296093    2.24232532048272   -0.42411915249368
O           0.83422521780537    0.63537557864053    1.34405667258691
O           2.72362799804169    2.15580123162072    1.43976649240630
H           3.40220468576450    2.43403802660768    0.83433889737542
O          -1.96539190075746   -1.81280278821296    0.66402779119893
H          -2.42976750612594   -2.58221810341177    0.99395880158761
O          -1.84686324172300    0.76525656754170    1.63161844228460
H          -0.88631769501163    0.77165693806989    1.79939925268008
H          -2.05620626715484   -0.16315514375977    1.42106280074632
O           1.36738309461982   -1.41642793665285   -1.53579764863499
H           1.87860943300927   -0.70747727914544   -1.06427002244237
H           1.93781291021359   -1.72857343105833   -2.23973909928589
O           0.59927344975020   -2.01206579598601    1.07291149190865
H          -0.99691199856859   -1.95445078541865    0.87501712526329
H           0.96527387106645   -2.10637691442006    0.18120221143195
H           0.78847084447836   -1.08366975018126    1.31675455495472
O          -1.28431372734586   -0.81364055470091   -1.81037997346412
H          -1.35749323917475    0.70922579272152   -1.33891103178347
H          -0.33831353595646   -1.05336866479872   -1.81599005801466
H          -1.66024192335953   -1.27007545781923   -1.03608891893112
N          -1.34957195982371    1.62554017457919   -0.80129940386124
H          -0.34188242028192    1.94110589924216   -0.69602815521756
H          -1.70078479443541    1.40770963710416    0.17989850669791
H          -1.90769307022222    2.33638076723643   -1.25961789486843
