    26
        -50.47250317  Gyration_radius:  2.4871696651 Dipole_moment: 2.881
 S          -2.10335251558991   -0.00834172948291    0.84764054482450
O          -1.98705467931741   -1.41453939038236    1.18342031363444
O          -1.52047792182298    0.84892861531157    1.87267798340768
O          -1.60505846631607    0.31302066172415   -0.47600117058473
O          -3.65461414418342    0.31220549614904    0.82387957713372
H          -3.93043609800050   -0.05925102541726    1.65481252879357
O           1.80517463318193    0.02933504112334   -2.08110039546613
H           2.27513305898210   -0.17234866159552   -2.89039752683063
O           0.42496169374084   -2.29570302940055    0.88518069473833
H          -0.49628498462732   -1.95871084639713    1.04019656010089
H           0.52517593306534   -3.06027706507032    1.45418229089387
O           0.13679339147003    2.13061346380118   -1.45039080643662
H          -0.65826229269854    1.58982000526572   -1.28840489016510
H           0.78335304742538    1.51228204457732   -1.83735110840414
O           2.26325307011053   -0.29134894224046    0.61569261898644
H           1.67405143621398   -1.05173486378582    0.78046768171303
H           2.29717727186983   -0.19825700690465   -0.35350531237290
H           1.43736817863830    1.01172218199131    1.02408898550492
O          -0.20792504821076   -1.58623110773798   -1.73188352260789
H           0.05430622583192   -2.11496875742279   -0.96405212389654
H          -0.85754918707303   -0.94667892586028   -1.37663469556631
H           1.04087800864884   -0.61540973099402   -2.02913077686982
N           0.76250588171917    1.83002748739105    1.08434817258128
H          -0.15817433325499    1.47382263098790    1.47364375996117
H           0.56713171080545    2.13975097768904    0.08462681243694
H           1.13192610938274    2.58227246668819    1.65399381449019
