    26
        -50.47250315  Gyration_radius:  2.48724994598 Dipole_moment: 2.881
 S           0.48453221333668    2.20736408286631    0.19099699374995
O           0.82507237755248    1.84903196057201    1.56242053738433
O           1.61445179701673    2.06079417411707   -0.70643260215537
O          -0.71021999932274    1.52455042780288   -0.26722082230435
O           0.13097043259084    3.75151254351316    0.20540663765924
H           0.98753053347597    4.13319703757755    0.36383018467260
O          -1.49775454092351   -2.10918464717605   -0.94911640515121
H          -1.97188398887955   -2.71342432286309   -1.52058266489449
O          -2.42657577014911   -0.23624589513382    0.84704107605381
H          -2.29796002833416   -0.97280499152920    0.22170501206542
H          -2.04203105250391    0.53998159471486    0.39945864140874
O           2.13132536493517   -0.41729057577522   -1.23108740041609
H           3.05395852680205   -0.47205632624028   -1.48428008422353
H           1.96594025485706    0.53573694590795   -1.00615992701650
O          -0.42176816478398   -0.16871149869524   -2.31364079463651
H          -0.58868837614358    0.56723204377010   -1.69102517033370
H           0.52904169699164   -0.33682175523862   -2.23868272174319
H          -1.13389718384140   -1.38732130982096   -1.53987219533238
O           0.86674495686087   -2.14970551546510    0.46268318358066
H           0.32325841095497   -1.19102865261025    1.61697176671942
H           0.04837478706536   -2.33219281561058   -0.03342923107679
H           1.40550078207643   -1.58918057687387   -0.12726538857066
N          -0.18698245526703   -0.46644787375175    2.20291358256100
H          -1.18177701597229   -0.41456364205776    1.82724539125063
H           0.25359301617660    0.48111159761826    2.01799401703321
H          -0.16075658457487   -0.69353200962397    3.19012838374049
