    26
        -50.47250312  Gyration_radius:  2.4871998224 Dipole_moment: 2.879
 S           0.82669480685175    2.02983417402698   -0.58247667335898
O          -0.25334043423785    2.69562703983425    0.12042884810441
O           1.91732267746188    1.66235144666740    0.31230320453895
O           0.38617096294700    0.90836837426261   -1.38985731067715
O           1.41685319671430    3.09608266694740   -1.59467195990101
H           1.53877918406102    3.84469554668052   -1.02087624580941
O          -1.31868884978352   -2.35737466674711   -0.54132252590335
H          -1.96599763041883   -3.00027452938909   -0.83141906647802
O          -1.65365504960981    1.05462926039289    1.54501015632256
H          -2.07061037854819    1.56167911882585    2.24310766613763
H          -1.09892185644242    1.69972897673248    1.03279525410288
O           1.13246446157463   -1.67720147783025   -1.60250739557748
H           0.28504036855386   -2.08915744208117   -1.35301279016875
H           0.90917187172881   -0.74864022435583   -1.79927967949525
O          -0.43936056599146   -1.37159240724662    1.87553388526181
H          -0.81626405864219   -1.87173960284391    1.12922737930905
H           1.04457589461205   -1.10419644641132    1.35242681403708
H          -0.89388093945989   -0.50807949017895    1.86174702720418
O          -2.12416571319375    0.07335934095034   -1.01820807809965
H          -2.27748766805203    0.44013187985411   -0.13509922550602
H          -1.27285651968851    0.46466675443891   -1.29986969821894
H          -1.68899696972552   -1.45704766860866   -0.77544776185890
N           1.91802965105466   -0.90189919285183    0.78254384809688
H           1.76187850558500   -1.33043177771343   -0.17951382356184
H           2.75261844631727   -1.26061206944440    1.23158400378206
H           1.98462660631792    0.14709243610670    0.63685413772707
