    26
        -50.47250309  Gyration_radius:  2.48725872655 Dipole_moment: 2.881
 S          -0.63221488904545    1.99488792064459   -0.87428941929916
O          -0.23766080937706    1.56329061348981   -2.20153627544741
O          -1.97331463506752    1.54095068326113   -0.52737906253931
O           0.33591257833836    1.66216492386588    0.15310957051720
O          -0.69358637884402    3.57711514512443   -0.92526420245970
H          -1.22108924379893    3.71457430190121   -1.70449211312166
O           1.70601856401440   -1.61855062299950    1.43473558071708
H           2.48544673337971   -2.06744017441714    1.76256393688020
O           0.20103071819628    0.40900806417819    2.53984608425556
H           0.36522544216606    1.06013647711382    1.83275866442371
H           0.81148232822344   -0.32609715708456    2.34741274990901
O           0.34538632271714   -0.95414613769894   -2.28160580991606
H           0.22776175569239   -1.24860516341172   -3.18593237373590
H           0.08674750096904    0.00457478654731   -2.27068765539958
O           2.29743780243842   -0.01688940883043   -0.53235583685347
H           1.70474012213550    0.72800449648540   -0.30648285861346
H           2.01606995946224   -1.01171933134928    0.70114419690368
H           1.87838542963611   -0.43411564267506   -1.29937369557567
O          -0.49911452210354   -2.30967635918784   -0.06336106059978
H          -1.45769663065338   -1.25704894925656    0.65838894664687
H          -0.23858112387781   -1.90557435172181   -0.91260078302382
H           0.29489719335875   -2.25927504799642    0.49900076893485
N          -1.88151929150864   -0.43122638458011    1.17500032090820
H          -2.76498680770254   -0.67141478069213    1.60933357285163
H          -2.00000545858765    0.36723591592404    0.48617586117566
H          -1.15677269017032   -0.11016382659247    1.88589088248580
