    26
        -50.47250316  Gyration_radius:  2.48721531839 Dipole_moment: 2.879
 S          -1.64164372358507    1.07632010643097    1.13542950881905
O          -0.52919141207049    1.64497927664216    1.88658993811125
O          -1.96647012263155    1.86541671974959   -0.03733025374854
O          -1.43886859014976   -0.33067214669817    0.84749828400532
O          -2.90865109894595    1.15328791294552    2.08329538739859
H          -3.06562437573652    2.09103616436094    2.10346129880626
O           1.05036084490778   -2.18525312455792   -1.30878116141454
H           1.17385090648406   -2.92823029238666   -1.89967924648754
O           0.51607665064164   -2.11025386716608    1.39406842136264
H           0.75699356180945   -2.34004413906725    0.47794795850110
H          -0.34645612417990   -1.66168983225242    1.31921821815477
O          -0.23142488513395    1.56730116061658   -1.93048323013734
H          -0.88265293458798    1.71908291314761   -1.19625950202480
H          -0.27196934220485    2.34817138849108   -2.48448933478304
O          -1.24111238602842   -1.01919978094378   -1.72611852029236
H          -1.48534122809423   -0.82559879961771   -0.79871883222420
H          -0.99512649582200   -0.15823983604755   -2.09514777968975
H           0.14687019737065   -1.80631369231344   -1.51530054270537
O           2.07021184204208    0.36307793647381   -1.08056756549876
H           1.87186293411829   -0.57205279114003   -1.26854013691252
H           1.31032007855400    0.86314700428072   -1.43404764847141
H           1.92866192471544    0.39717186568449    0.50873936140286
N           1.64811417715677    0.25799099406277    1.52391791973906
H           2.40928443804590    0.47115126151915    2.15798009983065
H           1.31796838632608   -0.75013078640876    1.61464906023782
H           0.80395675700327    0.86954439419337    1.72266829803104
