    26
        -50.47250311  Gyration_radius:  2.48728547195 Dipole_moment: 2.884
 S          -0.03668250284256    0.57309562317621   -2.19395305882056
O           1.40550097576586    0.44318449596588   -2.27608476129966
O          -0.71167169112949   -0.70927013367786   -2.35269902578657
O          -0.48707197581493    1.28003353870107   -1.01032079110538
O          -0.47018817642737    1.46396232570442   -3.43031152922802
H          -0.01874227796558    1.02151611321370   -4.14086816104337
O          -0.16454252653227    0.57755390666696    2.68915438509840
H          -0.03481097465108    0.97046035998140    3.55245282995551
O          -2.28353050052792    0.75613091177580    0.93513747666084
H          -1.78554456331830    1.17706015073261    0.21011944718749
H          -1.67485377088247    0.77120511817317    1.69626278155128
O           2.41590336869031   -0.61533551818463   -0.14457250010187
H           2.03479201555175   -0.24372741920838   -0.98288934463543
H           3.25331099331963   -1.01207905189184   -0.38897005840016
O           1.33157371065379    1.72878638342969    0.89427638057507
H           0.69724258617866    1.73766932500813    0.14946365224408
H           0.42395230856594    1.08318731530561    2.05640203006289
H           1.97215477077176    1.04226624483224    0.65700573935137
O           0.53278547976153   -1.78392871209863    1.45542779231182
H          -0.76374472087495   -1.81059662484175    0.52516174713504
H           1.26306499768303   -1.45438236101291    0.89820779647993
H           0.31850541787937   -1.04928533424170    2.05841897499286
N          -1.61479288566447   -1.57944084424215   -0.06724339025528
H          -2.06406252468826   -0.71692494660875    0.36601121416411
H          -2.25834293209231   -2.36016927220308   -0.12352764257234
H          -1.28020462133359   -1.29097159462999   -1.03206200456000
