    26
        -50.47250316  Gyration_radius:  2.48722193841 Dipole_moment: 2.880
 S           0.23965748301549    2.23160352667479   -0.32519062767273
O           0.30331345639667    2.03717286873591   -1.76112757074680
O          -1.13432347329406    2.28636926676974    0.15892975469723
O           1.04111403462338    1.28192427952120    0.42268736352274
O           0.87097556693264    3.65726687481372   -0.04504357416269
H           0.39924134891651    4.19319102080559   -0.67327079622403
O           0.93165846253329   -2.48322155622431    0.74487565945140
H           1.46014857519718   -3.27700777046608    0.82909104508630
O           0.55648305379645   -0.38409645328672    2.49088517156867
H           0.76659076906485   -1.22549647069256    2.04585342724075
H           0.93404595008923    0.30415889147202    1.91247947347822
O          -0.28681815598420   -0.38328636308021   -2.45084772856269
H          -0.59305091272063   -0.35792317644469   -3.35856115897875
H          -0.09663457793813    0.55874441790496   -2.20046423832597
O           2.00847886061519   -0.80708907473821   -0.93301329692931
H           1.82126239935931    0.02736670997769   -0.45786495783018
H           1.41752403394982   -1.88610469211379    0.10460083497194
H           1.39123097376609   -0.80333930744226   -1.67929160809309
O          -1.46298302629566   -1.80551193641692   -0.43487944553287
H          -0.68596872783807   -2.22976846577257   -0.02814589133174
H          -1.80452344084231   -0.68192785411565    0.64583884275045
H          -1.11899764680561   -1.33624846844018   -1.21838004966091
N          -1.78255270010104    0.07970455970823    1.38617870218607
H          -0.93775294025591   -0.11767755215280    2.00335986942007
H          -2.64534489813893    0.11498975673697    1.91645428989979
H          -1.59277444802691    1.00620697825250    0.90484651979836
