    26
        -50.46547045  Gyration_radius:  2.52310356186 Dipole_moment: 4.998
 S          -0.67727249553620    0.42809039107154    0.37117260884864
O           0.21339058766082   -0.71616756117634   -0.22486989579671
O          -1.44866905138291    0.91633328297498   -0.75585658545742
O          -1.45342430105713   -0.11653383441436    1.45582339286477
O           0.26993888816307    1.46983433042273    0.82383949222954
O          -1.28528795335724   -2.60482943608098    2.38017274809423
H          -1.92176142399217   -3.14900667539067    1.91525884946496
H          -1.45808040686783   -1.68138609159653    2.10084450914087
O          -1.12448748151052    0.08039530878978   -3.23088319481357
H          -1.32971767863362    0.36273140534015   -2.30986675806380
H          -1.70586852202190   -0.65803970087861   -3.41537313344760
O           0.79201361671838    0.32188545242181    3.17674838234256
H           0.67383398797545    0.88112975598648    2.38659329258605
H          -0.10031941146081    0.13223716788658    3.48060000342937
O           1.45267322815902    0.04585385859299   -2.55822441703119
H           1.16200924065164    1.46788050785238   -2.01528474155152
H           1.29400392708279   -0.46501856825670   -1.74765096286238
H           0.62223685522432   -0.06085981553413   -3.06993907800691
O           1.23148295437259   -1.88156819109408    1.75272623058488
H           1.28705223300834   -1.12852890029732    2.38731689372887
H           0.46175775243023   -2.40187020244202    2.05783190610904
H           0.67064319381905   -1.21799717361785    0.56046854210028
N           0.72569273081858    2.32636885456309   -1.52502950910474
H           1.25796763293336    3.17864695236703   -1.66887043283514
H           0.62746992458013    2.05846715851085   -0.47310924722221
H          -0.23727802777489    2.41195171400245   -1.85443890532913
