    26
        -50.47250198  Gyration_radius:  2.48731046413 Dipole_moment: 2.858
 S           1.94218943406527   -0.87253510552959    0.78160439354701
O           2.36835434615366   -1.19186942500855   -0.56759965378763
O           2.23374736556175    0.51145809108748    1.13454893560013
O           0.55956373292700   -1.21994201691946    1.04899520331052
O           2.81822246080390   -1.77671659891809    1.74329789926028
H           3.68847259178177   -1.62950042039829    1.38905401913589
O          -2.71769120763405   -0.07343627555200   -0.44718898151238
H          -3.59692584605690   -0.34788005101431   -0.70834231790618
O          -1.56568176527142    0.11121113616361    2.04977554833658
H          -2.15499383225139    0.03601674266762    1.27695822291022
H          -0.86354487947480   -0.54665616360040    1.89202513086769
O           0.81292891034976   -0.15629604983473   -2.35429387035721
H           1.32104181312544   -0.06700071658596   -3.16191896764415
H           1.43855046307831   -0.52608426710121   -1.67754081905563
O          -0.94504621449072   -1.88212339084618   -1.05662750967931
H          -0.38149498057557   -1.81902055065762   -0.25931141922792
H          -2.10185305113732   -0.82318847279924   -0.69436022310714
H          -0.42208328606882   -1.46232224448069   -1.75532346300771
O          -0.85665857510472    1.75262882466479   -1.33516423916789
H          -0.24092307641521    1.13853872744758   -1.77813292880222
H          -1.64313248045037    1.21849028893569   -1.12234306154454
H          -0.25631616363027    2.01582828901452    0.12000374946361
N           0.06443136343654    1.95680544854006    1.13107085020264
H          -0.64202983617016    1.34508023874193    1.64104386131134
H           0.15297834209215    2.87398785017140    1.55274812880885
H           0.98789432136336    1.43452610181247    1.15702153203503
