    26
        -50.47250313  Gyration_radius:  2.48713986558 Dipole_moment: 2.880
 S          -0.81989203077921    1.95929844735963    0.79464931919950
O          -1.25163806996305    1.13650851726651    1.91791171054091
O           0.52398570565282    2.47218514785227    0.98072807832293
O          -1.01097113946832    1.28661597782908   -0.47599715054649
O          -1.77454124811587    3.22331725028427    0.77141144278191
H          -1.48577959511714    3.68519797203654    1.55099662210060
O           0.56588105365079   -1.77913943895124   -2.02615423531221
H           0.87888907615986   -2.17109424946312   -2.84156152154607
O          -1.98367094527237   -1.12159167020647   -1.21151974040706
H          -1.18423471494985   -1.46881331813794   -1.64795199056586
H          -1.82383257474408   -0.16350101643068   -1.12580246962113
O           2.32317919814499    0.64637449719717    0.64603722051818
H           1.63903581046470    1.34611950103436    0.81510189415340
H           3.10345584594703    0.91782459826049    1.13165131431278
O           1.28467202159046   -1.88168104932874    0.63049186553185
H          -0.20537650766085   -1.66068946719416    1.15754925847422
H           1.13109503349596   -2.01457700961361   -0.32237706360692
H           1.73067154349221   -1.01648127876419    0.70090875506071
O           1.18766566034621    0.74684943976479   -1.89442947420243
H           0.82316848778155   -0.81206876306960   -2.05978631748246
H           0.36488777720457    1.08615528582673   -1.48810780477961
H           1.84175001119920    0.78404906859162   -1.18119853477554
N          -1.22507495118446   -1.39349540664561    1.28984098711808
H          -1.26491077659383   -0.38523651996873    1.61836797630725
H          -1.69418856996820   -2.00841637668235    1.94454085699002
H          -1.67422610136405   -1.41371016892584    0.32469901138115
