    26
        -50.47250311  Gyration_radius:  2.48711663132 Dipole_moment: 2.883
 S          -1.10405068629479    1.12130376801557   -1.63287434204980
O          -0.39925749577557    2.34517005619238   -1.30268989093010
O          -0.32729542921605    0.26521925033016   -2.52110516846436
O          -1.58704822997128    0.40073764233873   -0.47049332809596
O          -2.39151337575504    1.55970813910329   -2.44521592214681
H          -2.00958984412409    2.14384253204336   -3.09129248354431
O           0.15883593746603   -1.19442749445118    2.47801522275474
H           0.10944214877109   -1.36499514152937    3.41873582764118
O          -1.37631719429547   -2.14695963047474    0.39636811567870
H          -1.72274976434452   -1.28006382281164    0.11482516314203
H          -0.92278818859176   -1.97095388744488    1.24101767899321
O           1.52588480111222    1.93938998319860    0.37429629676412
H           2.16208601203206    2.64683614490006    0.25994836171295
H           0.81414290095874    2.10039591978054   -0.29930810511177
O           2.16032537773468   -0.70442325891053    0.65067271330501
H           2.03749509353668    0.25803577535728    0.54517769139459
H           1.59812761998990   -0.95363807495620    1.40632602657912
H           1.37687664624925   -1.38994540506656   -0.55885135348662
O          -0.67846263496367    1.20572566469197    1.90945072739963
H          -1.15955917967849    1.00762573901290    1.08090847459558
H          -0.19619121211874   -0.26860591207728    2.33906777874757
H           0.12325343686944    1.66455641625555    1.61858524890457
N           0.65281838984044   -1.77807980354974   -1.23249637435630
H           0.28680241028533   -0.97716331416952   -1.82469312928927
H          -0.16624986692575   -2.11403529750301   -0.64107242328910
H           1.03498231710660   -2.51525598825248   -1.81330283687968
