    26
        -50.47150054  Gyration_radius:  2.42627961107 Dipole_moment: 3.434
 S           1.06781034337055    1.22368896579809   -0.94770608928466
O          -0.23711802388338    1.65815099730976   -0.47169455985779
O           2.12837355622681    1.63513046964895   -0.04103506398071
O           1.10608518172349   -0.19241274469968   -1.25314295755364
O           1.32515211835350    1.96847412844254   -2.31638641002426
H           1.35531074706217    2.88125851739312   -2.05031971776671
O          -1.80612206499970   -1.34364518322165    1.09552341513849
H          -2.57808215280333   -1.87027426481738    1.30443370251756
O           0.85671985841040   -1.89990267756388    0.79842499614917
H          -0.10996602351602   -1.87798097712642    0.93089713414292
H           1.00677098019345   -1.44111647182896   -0.05121352658905
O          -0.60682353268858   -1.18056295304182   -3.03833541236326
H           0.10289007231934   -0.78223009293135   -2.49589553491628
H          -0.35670992339729   -2.09543213920232   -3.17680982762824
O          -0.94858160741260    1.08173442728854    2.06691601696107
H          -0.82302755144949    1.48242604917106    1.18466880659577
H          -1.40322224852286    0.23756750294762    1.88818167520821
H           0.55505028327408    0.65011959452299    2.30216406931921
O          -2.19672282576848   -0.06797033389292   -1.12598764130408
H          -1.57799039565619    0.66855261966633   -0.96157511976327
H          -1.83486705242500   -0.52551525832174   -1.90661282727107
H          -2.00035620146953   -0.89990982772590    0.21553249671118
N           1.53254699373510    0.26711854274680    2.10415110684989
H           1.91608667145228    0.85345639620726    1.31212313744905
H           1.38979951653322   -0.71634453548302    1.71612326596897
H           2.13699329133821    0.28561924870820    2.91757489529421
