    26
        -50.46547047  Gyration_radius:  2.52339490025 Dipole_moment: 5.005
 S          -0.59642162224864    0.43038899026879    0.48784393833255
O          -1.57970424644651    0.23461856242219   -0.59945067590076
O           0.77277285049216   -0.06616129521732   -0.09243076849250
O          -0.45839337615206    1.81536959572025    0.85975563827418
O          -0.88103135495639   -0.47777323174126    1.58235298069706
O           0.59323399798163   -2.57681952885888    2.17448702141462
H           0.06044515546358   -1.76035521928838    2.03470852168991
H           1.26566495165455   -2.34558188122759    2.81597160266235
O           1.70836810483400    3.31051703864632    0.48125047079368
H           2.26215609581685    3.25122339553525    1.26055376019891
H           0.87265833229568    2.84891493027333    0.70298620616463
O          -1.01126119668578    2.51821550952177   -1.86034079304986
H          -1.02888727727320    3.13489840040932   -1.12280914743522
H          -1.36063822243172    1.68329741168337   -1.49718612068468
O           1.52174359521983    1.72397301799575   -1.68624300053303
H           0.64652724192507    2.06204146506927   -1.99045722798407
H           1.83577667318225    2.39710889026857   -1.05004026929345
H           1.11490049069772    0.63861436577134   -0.77339824992881
O           0.80860549480465   -2.78907464557519   -0.47212840468419
H          -0.73108363702519   -2.61358702594754   -0.44747031737830
H           1.06833166508640   -1.85983164123734   -0.58328096997849
H           0.92788785688052   -2.95340034282265    0.48781278733535
N          -1.73756295974787   -2.27681014200355   -0.24476509275749
H          -1.76319107417649   -1.21929645220085   -0.50762554030473
H          -1.86714425586373   -2.28797491504726    0.76823518551496
H          -2.44375327332103   -2.82251525242121   -0.72833150467136
