    26
        -50.47250302  Gyration_radius:  2.48720767325 Dipole_moment: 2.889
 S           0.64547732836813    1.87001620220279   -1.10878194904460
O           1.22884389917587    1.06805376181375   -2.16709349760799
O          -0.78795845894372    2.06096202665592   -1.29398927716551
O           0.96126165453864    1.38833902786393    0.22231372037331
O           1.30688104185553    3.30468854323584   -1.22599741682899
H           1.17924359329200    3.49027878535339   -2.14987539209512
O           0.23046832482314   -1.85028161148825    2.02885834348802
H           0.57379207336226   -2.49621340383752    2.64641811623174
O          -1.41189268042613   -1.88679339780554   -0.18213455131832
H          -0.91600095040367   -2.04785736444690    0.64081624059763
H          -0.73312492898002   -1.79224486118239   -0.87707336952607
O           0.62719833307986   -1.43626741373905   -1.94440126073096
H           0.69570533819392   -1.82808794209062   -2.81635189793723
H           0.83268494316791   -0.47176095067109   -2.06138417777211
O           2.08463087555363   -1.02955828997137    0.39369195729724
H           1.80896399519713   -1.38697503498680   -0.46309106435072
H           1.84318733573445   -0.08239724053396    0.35161007654643
H           1.00060597287085   -1.57174367269887    1.45285429360653
O          -0.50015717111357    0.77985936718819    2.40887190710637
H           0.15988227415035    1.16217229336836    1.80145469904191
H          -1.64133003383260    0.72629838904351    1.29692939849073
H          -0.25106168794653   -0.15924408958194    2.48737947741251
N          -2.14885852885040    0.58748370878247    0.37133504112608
H          -1.98709827035681   -0.42218553981825    0.08290637047199
H          -1.66547408391573    1.21650165350669   -0.33344490190663
H          -3.13587017858356    0.80695705373608    0.43817910479701
