    26
        -50.47250311  Gyration_radius:  2.48721365597 Dipole_moment: 2.887
 S           1.69636749069251    0.87930800825595   -1.22171124600099
O           1.93405196678485   -0.50979434413452   -1.59490291114208
O           0.75122087542446    1.52753606446756   -2.11052228847184
O           1.35565333322550    1.01358576679329    0.18164709742467
O           3.07428417113745    1.63695479481751   -1.41420900218378
H           3.15647123706768    1.62992590246913   -2.36165303942090
O          -1.61351936486559   -0.11487468224122    2.23072322865040
H          -2.20186854480627    0.11528109258242    2.94999730191581
O          -1.82398851277440   -1.49545920474907   -0.14286633274948
H          -1.91280517564360   -1.10653127677125    0.74597856460111
H          -1.84297094053158   -0.73792696691134   -0.75796737282752
O          -1.67904241057602    0.75443050418167   -1.68710845130702
H          -2.17193333936948    0.89666549192204   -2.49653560344188
H          -0.74542129326338    1.02994127554945   -1.88386430167664
O           1.07570100352220   -0.71898829134188    2.23264240119922
H           0.94978102430900   -1.72941997726829    1.00587498985046
H           1.35248441936480    0.02739016817462    1.66949526176217
H           0.14098988098298   -0.53889115777383    2.44233576682511
O          -1.07732953249964    1.95968892045490    0.74972508781777
H          -1.51734794945437    1.76084317684740   -0.08974140437989
H          -1.44040756933813    0.73146033095005    1.72444000430919
H          -0.13078063937700    1.78334897988301    0.57613797880542
N           0.73009869790657   -2.13740376096539    0.04733240393607
H           1.00321862921604   -3.11038180843173   -0.02727870202360
H           1.24973377196362   -1.54027569392700   -0.65944441593365
H          -0.31264125929001   -2.00641332302847   -0.10852500532105
