    26
        -50.47250308  Gyration_radius:  2.48720758269 Dipole_moment: 2.886
 S          -1.87725231170686   -0.33062067465602    1.22879229194850
O          -2.24410841487072   -1.22127073103590    0.13445799578757
O          -1.11344800234930   -1.01458660830903    2.25462163131976
O          -1.24516029780251    0.88424412121239    0.75119222041808
O          -3.23295538515161    0.11908855391604    1.91406011159758
H          -3.51214686125855   -0.69456306198377    2.31964176831212
O           2.03835080553076    1.56590588496631   -0.99249691663672
H           2.77262649616103    2.17534675624596   -1.06929627539283
O           1.31851644873300   -1.48408078856912    1.51440039773799
H           0.37624370676892   -1.34288251463636    1.79456065000385
H           1.63690088922327   -2.22889559899577    2.02648065928033
O           1.69134323758434   -1.16015934380136   -1.17332819981989
H           1.61203889540393   -1.36630214216792   -0.22265420663658
H           1.97998634724240   -0.23039546839599   -1.21100393946857
O          -0.61306595837942    1.85285793086889   -1.68793010833954
H          -0.78779777750167    0.30934908526960   -2.04661368074642
H          -0.97094653908357    1.74765247282214   -0.78700931087106
H           0.35139396649724    1.92341059448029   -1.56555066226321
O           1.28889591598385    1.29994137797768    1.48779031367272
H           1.79760291250310    1.53335879568073   -0.02109696273526
H           0.32061409723625    1.26445103010849    1.35210060394366
H           1.53529114855931    0.38869250560275    1.70412414680370
N          -0.79029040963630   -0.75312290665160   -1.97810963182727
H          -1.11215885893766   -1.19200912796564   -2.83287111268447
H          -1.42162941519999   -0.99988404994050   -1.16163658351693
H           0.20115536458473   -1.04552610233109   -1.73262519975836
