    26
        -50.47250303  Gyration_radius:  2.48721751105 Dipole_moment: 2.887
 S          -1.07113647799676   -1.99756867389612    0.07686236738605
O          -1.70486542974868   -1.43121965451496    1.26136709416982
O          -1.80081217718553   -1.67966494827422   -1.13559481970916
O           0.33941184515574   -1.66761152290446    0.00563069578113
O          -1.14692156408338   -3.57181061299838    0.23781787826424
H          -2.08042492126175   -3.72204816063419    0.13539049355076
O           2.20356854868794    1.58571292961192   -0.47108753247045
H           2.96660526597160    1.99911034658883   -0.87525112842589
O          -0.38302351633177    2.32897466146507    0.11409596747398
H           0.56502653004542    2.26087908683661   -0.09974006367216
H          -0.84312858392126    1.85449983505434   -0.60407105489231
O          -1.47611996126590    0.78184573634561   -1.85544651611669
H          -1.63822816342563   -0.15470250876070   -1.56748085079072
H          -2.23255532232650    1.02787519776117   -2.38988053584806
O           1.13044485496695   -0.17419428921408   -2.06342859786532
H           1.86269041183612    0.91395288816410   -1.13074367426529
H           0.90571243121062   -0.86067422822878   -1.40353618130529
H           0.27840565146212    0.22121172692644   -2.29921169493436
O           2.03237841822603   -0.26036199790893    1.56794762881635
H           0.64005529398907    0.30736849193163    2.09766530000061
H           1.61443450950033   -0.96462255856405    1.03869285745965
H           2.29242361321561    0.41794899694825    0.91798591105993
N          -0.37323357591936    0.63180468929667    2.13682012735664
H          -0.47879422395507    1.39246857738497    1.40265489899377
H          -0.63613521219037    0.95901894497775    3.05913086641766
H          -0.96577825470121   -0.19819296355097    1.84341056350620
