    26
        -50.47250279  Gyration_radius:  2.48726585761 Dipole_moment: 2.896
 S          -2.06453250860076    0.47332227500090   -0.81025666834656
O          -1.37243532231446    0.53255394136100   -2.09215330935861
O          -2.51771906043498   -0.86861693317816   -0.49807594900828
O          -1.29030533301306    1.08383950858801    0.25350021065530
O          -3.37077204701064    1.35591137021229   -0.96612486849152
H          -3.87711298180192    0.82776208212679   -1.57369862006723
O           1.98281827197445    0.16589026324427    1.90621838075965
H           2.46268757749998    0.14773250816455    2.73439477932526
O          -0.57664397860299   -2.42133089735553    0.21182572964258
H          -1.32412895532352   -1.84469604241334   -0.09643473672232
H          -0.84743328583053   -3.32285713295831    0.03187852524400
O           1.88189361111639   -1.38134548630407   -0.37088245090412
H           1.03900595989301   -1.84385878200931   -0.20263567912634
H           2.09309217880975   -0.92206129546720    0.46189433429393
O          -0.50817353969872   -0.51753112225463    2.24373698852830
H          -0.57557205358336   -1.37021776865038    1.78975640812872
H           1.03817900362984   -0.08731698838076    2.12045985956981
H          -0.92607132025090    0.11922529600342    1.62964509552790
O           1.11946981801487    2.29399713945229    0.38251374769389
H           1.54691929224111    1.68871522213599    1.01578716147180
H           1.28620216926340    1.50437965697217   -0.99230067937845
H           0.16741186932257    2.09559490804727    0.45277239283067
N           1.20214445087640    0.76363271490223   -1.75242557054892
H           1.53394976061599   -0.15090293105562   -1.32549688147977
H           1.72947525969082    1.00492060918636   -2.58341942215337
H           0.16765116365888    0.67325787478715   -1.97047876825240
