    26
        -50.46547037  Gyration_radius:  2.52286977356 Dipole_moment: 4.987
 S          -0.45048738570415   -0.60585949637865   -0.45852043475245
O           0.01571241290116   -0.43915524605701   -1.82185203049187
O          -1.87038324958752   -0.80373010998998   -0.31578040567531
O           0.33601203102851   -1.65946366795295    0.21877295227450
O          -0.06144302787108    0.73253843745237    0.25909405883561
O          -1.36857882730087   -1.97132498125989    2.24976892689484
H          -2.19991753504078   -2.04051676965771    1.77158533868220
H          -0.67952031591740   -2.00724737290541    1.56062000824219
O           1.38392029717429    1.64874956441869   -2.65771054378380
H           0.79400859288562    2.32691139621439   -2.98856833370566
H           0.80923892082457    0.88992342333630   -2.40471060104765
O          -3.51934907896650    0.76330448343589    1.06244620854862
H          -3.01548978138797    0.13937150039617    0.49898690057129
H          -3.87527114783587    1.42912763048341    0.47307583163840
O           2.53565637480236    1.47069231401981   -0.26274510549023
H           1.68625782709402    1.43659835313491    0.20680061837803
H           2.68007012719664   -0.02983427464941   -0.62237457607932
H           2.29567226546883    1.78830195065113   -1.15970376795747
O          -1.23159175762881    0.67538015743088    2.48011808710783
H          -2.14315291013662    0.88848098989057    2.19747058217735
H          -1.24508581405853   -0.29724041594827    2.64325290374690
H          -0.51188221829732    0.74583859751005    1.19428057206223
N           2.50350137121750   -1.04244688145392   -0.95568371663089
H           1.65274590184835   -1.40803686456131   -0.38073779531617
H           3.32264333422434   -1.63617567911678   -0.87271594924426
H           2.15671358306553   -0.99418705844457   -1.91516972898959
