    26
        -50.47250298  Gyration_radius:  2.48722353011 Dipole_moment: 2.892
 S           0.30420638520273   -2.24581833874584    0.08139672316926
O           0.24462757287859   -2.14503604472029   -1.37176568624830
O           1.65284191410556   -2.06745039322781    0.58430127860208
O          -0.67108473414906   -1.38713293523041    0.72561339130107
O          -0.10959047718810   -3.73128146886459    0.44477035864696
H           0.63881437812654   -4.21624409647571    0.11433069324269
O          -1.05545541917071    2.36733930952391    0.93538801065794
H          -1.31439046250370    3.09690812000583    1.49856608252379
O           0.79355978567945    1.95507647063583   -1.06430755920716
H           1.45417113981783    1.44605601298750   -0.55718572393797
H           0.16508376715513    2.29244853933198   -0.40078619176962
O           2.41577054862891    0.40071319133470    0.49056842095217
H           2.14731661983056   -0.55542297572547    0.49603736021173
H           3.37343016316054    0.40524802678337    0.45604706709652
O          -2.55374890527261    0.33136748804207   -0.16243158652244
H          -2.09157800520321   -0.39730995018617    0.29174283209487
H          -2.21414909644478    1.14204735567347    0.25903175891708
H          -1.64282942046855    0.23150586008331   -1.46666181829237
O           0.28061861569200    0.57358395537255    2.27065991748163
H          -0.09438573288262   -0.23231881013911    1.86189385563526
H           1.17530641704571    0.63530729026851    1.90535682703264
H          -0.56870566551853    1.71685297222251    1.52050706461157
N          -0.79992251117016    0.12695936787001   -2.10874078781221
H          -0.10738477872369    0.88241241775683   -1.82880054400317
H          -1.05297443205949    0.19164277399518   -3.08783924196432
H          -0.36954766656530   -0.81745413850928   -1.88769251246810
