    26
        -50.47250301  Gyration_radius:  2.48718113327 Dipole_moment: 2.891
 S           0.82668507849880    1.63816428474380   -1.33257701109821
O           1.84999150489889    0.74277748682170   -1.83718160703952
O          -0.43750505739328    1.47856230481338   -2.04088700875946
O           0.65555480510363    1.56797191737578    0.10592744771579
O           1.33241263393075    3.10681392325288   -1.64414754882864
H           1.55350516939675    3.03286462676753   -2.56615862676886
O          -0.37889052104471   -1.21650533717559    2.44325140860251
H          -0.23507674910289   -1.60948095325164    3.30427804288861
O          -1.03248054811651   -2.12416593393140   -0.07363982366805
H          -0.15224047892036   -2.06183275234006   -0.49070068980116
H          -0.87738306560184   -1.97568634209542    0.87663645857715
O           1.46953937368209   -1.70170473330166   -1.08702400541880
H           1.90390703731795   -2.26983887288862   -1.72489278391290
H           1.60440267990547   -0.77306397365608   -1.41214575291685
O           1.86709526186540   -0.45030262707964    1.36922233814624
H           1.56504559021573    0.38748276477452    0.96414539617631
H           0.52063037473898   -0.93201086110685    2.10791657962014
H           1.98023823135099   -1.05335507925126    0.62004904775700
O          -1.46285209448673    1.21832774865974    1.74184027459722
H          -1.16875797562752    0.39839794435425    2.17931529994009
H          -0.66290840571907    1.56987522443736    1.30900019633143
H          -2.07844932297307    0.66297076779841    0.38035166568026
N          -2.17515472018849    0.20277052783418   -0.57490355748053
H          -3.12922668854662    0.22286020891179   -0.91576032876303
H          -1.81250737084206   -0.79066266130721   -0.47325833601988
H          -1.52557474234681    0.72877038678134   -1.22865707534467
