    26
        -50.47250305  Gyration_radius:  2.48718694431 Dipole_moment: 2.890
 S          -0.34156553944689    1.82704734981500   -1.29925598285541
O          -0.61331090346333    2.63746998428660   -0.12756190189039
O           1.08735703913311    1.70825633482514   -1.56274960225434
O          -0.99790861716041    0.53398227813740   -1.27245021422728
O          -0.96057368855145    2.60904287878684   -2.53012808962813
H          -0.59506101350709    3.47709155448980   -2.39840760272236
O          -0.74732048944941   -2.43278254645949    1.05619205737998
H          -1.23696125760657   -3.13541616488289    1.48402260351059
O          -0.07341509399709    1.39177951636392    2.07235854423877
H           0.09967502605829    2.05370549883699    2.74335128223722
H          -0.24825146760214    1.89306770222280    1.23306511030340
O           1.42546927603333   -0.85848444087436    1.67785512040469
H           0.72948619166203   -1.53545833587401    1.59751829062055
H           0.95575894312097   -0.03164818062228    1.89774534688900
O          -2.10538645132677   -0.21009601760196    1.04199868480142
H          -1.33845604335647   -1.62481359165274    1.07274618851757
H          -1.60828485288431    0.36580107391655    1.64115732787568
H          -1.86955864068919    0.10764292931321    0.14720804829427
O          -0.16867838264986   -2.01317238251221   -1.60546560736347
H          -0.42137623243112   -2.35887378007222   -0.72979453993393
H          -0.64554540006758   -1.16640013562291   -1.68553237797119
H           1.22875602795448   -1.31288308218604   -1.29260606149709
N           1.96666445014577   -0.65427713841635   -0.89844780176786
H           1.89655915789832   -0.71558502770984    0.15986375042234
H           1.68403590161764    0.32479608609476   -1.19439086099023
H           2.89789205062701   -0.87979236285428   -1.22829170226117
