    26
        -50.46379219  Gyration_radius:  2.5277201093 Dipole_moment: 3.683
 S           0.09976393588818    0.62230295696921    0.41917512848140
O           0.86301834417640    1.74385982300521   -0.06682676950885
O          -0.26601337888405    0.67667588898892    1.81153264048740
O          -1.19460363538213    0.57946132955065   -0.45574473281803
O           0.80455397470290   -0.65494503703244    0.10040203033610
O          -0.61041966910263   -2.14312603243668    1.82131141459840
H          -0.57555508373647   -1.61426306694829    2.62361014245092
H           0.01578058575579   -1.71246165723456    1.21142096217143
O           3.36837811429627   -0.05138015685044   -0.55925367238763
H           3.75057567474616    0.47845395684369    0.14239134682814
H           2.49689945259088   -0.34042156372063   -0.22807498706080
O          -2.77748829711886    0.74690872939608    2.68342808720127
H          -3.08122672509151    1.65510654676792    2.65748715709257
H          -1.81902117379290    0.77461356640184    2.48016617135730
O          -2.75082378347578   -1.04135462770932    0.68024375172261
H          -1.86699731715990   -0.07397296842270   -0.02169334768562
H          -2.09241443157091   -1.65412867496492    1.08336866090716
H          -3.05207794851178   -0.48159007286860    1.42467192066016
O           2.11128440131873    1.50006940333896   -2.35468364134687
H           1.13443924684831    0.40519297234446   -2.58956903845390
H           1.64544797237332    1.86987347875654   -1.56809315462660
H           2.85123929297008    1.00650154340074   -1.94384416981779
N           0.40113318574859   -0.40465174574010   -2.42840765539923
H           0.59039025884282   -0.69751443987804   -1.41443358711118
H           0.49603041819939   -1.17421193632967   -3.08346870937857
H          -0.54229343462865   -0.01499820564344   -2.42511596869730
