    26
        -50.47001083  Gyration_radius:  2.46301591896 Dipole_moment: 2.607
 S           1.97427379492248   -0.91821752930836    0.41287548464178
O           2.33621265388104   -1.48965620625050   -0.86052060816861
O           2.01501032573258    0.52456087340881    0.45399359035509
O           0.69741008719678   -1.42533999724724    0.93552504938317
O           3.05473688276132   -1.45309109577826    1.45462222024528
H           3.83622167460930   -1.48968680229973    0.91338031387224
O          -0.91355432894202    1.88631834406060   -1.40374697439663
H          -1.02558766349670    2.43588525121123   -2.18024905621765
O          -2.62534703253215    0.16510291691785   -0.10929451434822
H          -2.19350546162717    0.84722356597146   -0.65646339028720
H          -2.30699377441771   -0.68565700410590   -0.45400185053034
O          -1.15310955720694   -2.07026421498087   -0.81696593393447
H          -1.18923242490613   -3.01980513144977   -0.93796546258956
H          -0.44267314132017   -1.90226812867363   -0.15272053228859
O           0.34953226007364    2.51742419095951    0.94935697186103
H          -0.43956604777388    1.37013332388254    1.65098359875678
H           1.13804134857591    1.96042810894863    0.78792855245868
H          -0.10625101911147    2.53614059801980    0.08831061073139
O           0.40383301017718   -0.23772019569643   -2.18668084406855
H          -0.24827518024038   -0.93116128017297   -2.00119162679404
H          -0.32360111019378    1.13632417925067   -1.68431704165094
H           1.23310533575839   -0.57437778041065   -1.79872296685416
N          -0.91499758303137    0.43578716458927    1.88473312970850
H          -1.73637037413351    0.32721721127634    1.22049153022913
H          -1.19404642624668    0.37517878308983    2.85663124018739
H          -0.22526624898180   -0.32047915540188    1.63400850785138
