    26
        -50.47001090  Gyration_radius:  2.46313935681 Dipole_moment: 2.613
 S           0.80381211151093    0.80324095539853    1.90313878748414
O           1.06825597255887    2.18430229924230    1.58392489663761
O          -0.59782304535746    0.46792623401064    1.99247918410919
O           1.51782789720696   -0.14146093800564    1.03219709136690
O           1.44316746497026    0.55766734190041    3.34178792292394
H           1.30333254931109    1.40251801476082    3.75619368347569
O          -2.04571259683578    0.33234793586195   -1.43850760449155
H          -2.73114642241705    0.81542615320636   -1.90149435705291
O           0.04956441736735   -1.20611651896432   -2.34040434324979
H           0.77978327885603   -0.57154360209164   -2.25046792127895
H          -0.76584201331452   -0.68599916621661   -2.21513524292656
O           1.95262198875720    0.59839984008228   -1.45294791306084
H           2.85692344574591    0.89363703218434   -1.56557931217066
H           1.86150588005703    0.33934803712884   -0.50496197432334
O          -2.28949825349976   -1.19645398210415    0.82716334802758
H          -1.84941625381497   -0.55665684954326    1.42311962966699
H          -2.44396022925178   -0.68934583038404    0.00953003554631
H          -0.95805679179114   -1.91663565960801    0.45416557318266
O          -0.25263628855904    2.10145239906367   -0.72025636950355
H           0.51914237632828    1.78517634020629   -1.21502805083986
H          -1.42447031927641    1.02034845996632   -1.07809134390730
H           0.08144038441184    2.24585109857045    0.18474721911983
N           0.04276526357786   -2.13588449799794    0.13153656148271
H           0.66713303275215   -1.42354917564504    0.59335691095378
H           0.08521159868776   -1.94309349488237   -0.91180322447233
H           0.32607457314263   -3.08090243740642    0.36133682351459
