    26
        -50.47001092  Gyration_radius:  2.46311943397 Dipole_moment: 2.616
 S          -2.16708537894760   -0.34816751375599   -0.30875475539419
O          -2.25928021878245   -1.78639196990095   -0.35455895676295
O          -1.87454093965739    0.19126018027637    0.99825164052365
O          -1.26147591485858    0.20862378766495   -1.32401835561386
O          -3.60295866103799    0.19457852405213   -0.73582503654391
H          -4.17234063772251   -0.47616426311168   -0.37396648792229
O           1.71032365131624   -0.42914562716681    1.80384822961263
H           2.17456129430067   -0.92097012931261    2.48218889158747
O           0.81743793378480   -1.24404035060675   -2.01642411160075
H           0.00284414988110   -0.72237250248455   -1.82026505996770
H           0.66175948657875   -1.68135261061552   -2.85431521996326
O           2.49996029120040    0.49097856073918   -0.66595406300953
H           2.10561780229088   -0.18923037526177   -1.23674274375727
H           2.42555760296997    0.14509040718839    0.24285723181128
O           0.21978716437969   -2.16214065476950    0.52508353406698
H           1.06998530530290   -1.07012879502927    1.39353663930469
H          -0.74241781364157   -2.09520272684209    0.37950224980810
H           0.60287027300620   -2.10623854099197   -0.36408637187085
O          -0.00764170780094    1.68629201450051    2.12506840688913
H           0.67421349218385    0.99893103232605    2.23532900076379
H           0.24162277175121    2.08153279500840    0.63784797114482
H          -0.82122095440770    1.18205089045805    1.92007064466266
N           0.38993732245158    2.06104544293905   -0.42584601414076
H          -0.35313470388734    1.42486516857251   -0.81773252387099
H           1.32111573301595    1.58261392958916   -0.60353016521679
H           0.34450265653182    2.98368332655194   -0.84156457488409
