    26
        -50.46547020  Gyration_radius:  2.52246367421 Dipole_moment: 4.976
 S           0.15079663084964   -0.23808693760852   -0.83847595027135
O          -0.56732349828957    0.01620686683723    0.53164143991622
O           1.58688682408173   -0.37322573303634   -0.51171817415879
O          -0.39397437069726   -1.43666520932190   -1.42338960377131
O          -0.07177764817514    0.97667476753664   -1.59923744891577
O          -1.27173594045469    3.10921062765845   -0.62878035083291
H          -0.88820347189945    2.30705252431965   -1.05261142417619
H          -2.21477765987286    3.06709194575981   -0.79113572747841
O           1.44164969284403   -2.95098133556064    0.16801425168677
H           0.94891956141090   -3.30148674742085   -0.57959836069984
H           1.66460966805106   -2.03618373208340   -0.08591543283054
O          -2.20397302021431   -3.02362056837610   -0.29277557691672
H          -1.56633905768103   -2.49596893852751   -0.81784011869888
H          -3.07662864164628   -2.73789065145886   -0.56515723048387
O           0.05788264370585    2.47659369412590    1.59050962039055
H          -0.54513537857999    2.92983919734551    0.96280231139143
H          -0.24334324723334    1.55352485515171    1.57667333569250
H           1.27310283083441    2.35529556091731    0.63640113048328
O          -0.59613550348095   -2.20337109531887    1.70581256051527
H          -1.31466187573197   -2.64703927869470    1.21285771474493
H           0.23177149610303   -2.59985235870304    1.34487316013433
H          -0.58806827223917   -0.87581038639588    1.06212388584780
N           1.92804501255760    2.12465378266944   -0.19157970680657
H           1.47428630678311    2.45679802003048   -1.04424851247655
H           1.92300196076605    1.03923905249892   -0.29074675123350
H           2.86112496820110    2.50800208766398   -0.07849903105965
