    26
        -50.47001071  Gyration_radius:  2.4629759705 Dipole_moment: 2.609
 S           0.46314816731991    2.08347948110954   -0.59760831562954
O           0.03859771237378    1.98455014950144    0.77900804507377
O           1.89266762721348    2.05584717378651   -0.78494281465506
O          -0.25227833262257    1.11594160048127   -1.44174717061856
O          -0.02157109583079    3.50004508078710   -1.14252299727190
H           0.71318421831478    4.05513318921392   -0.90390036318287
O           0.48763406589723   -1.52358642330548    1.95054022368574
H           1.01145548317806   -1.94464405353603    2.63307303535521
O          -0.72259709283896   -2.51329780272955   -0.31341918627305
H          -0.07690684410456   -2.24143851807200   -0.98653118364637
H          -0.28444422597125   -2.36363545645163    0.54492647946713
O           0.98068035901059   -1.13644149818579   -2.00777503108406
H           0.53725461276600   -0.26643123468020   -1.86486015959404
H           1.34669569611382   -1.10991862460415   -2.89256902136882
O           2.18243122925247   -0.32852215595820    0.35062924205790
H           2.16732160866741    0.61313035831374    0.09633702366964
H           1.12667072348130   -0.98615135879029    1.41016209358219
H           2.01332539345467   -0.80486869925422   -0.47699106993944
O          -1.46364563857816    0.38235021525585    2.25027764900302
H          -2.02023744680577   -0.00289211024984    0.84595858575853
H          -0.81731348667683   -0.33517924130757    2.38036958766910
H          -0.92706660083467    1.12422451359875    1.90373038126022
N          -2.11472009840598   -0.27227574539958   -0.18957258935007
H          -1.72039651067146   -1.25244437553135   -0.29585917627610
H          -1.47126143895605    0.36899922881763   -0.72361462513677
H          -3.06862810464381   -0.20197368291148   -0.52309864249203
