    26
        -50.47150083  Gyration_radius:  2.42627375567 Dipole_moment: 3.422
 S          -1.17607840294435    0.54482193880836   -1.36197875741038
O          -1.83649404970019   -0.65865507041807   -1.84323387707510
O          -1.53036822916446    0.82920026533213    0.02073601243848
O           0.25689487095907    0.52454911587452   -1.57723928656821
O          -1.72674714313258    1.74437512377932   -2.22913697576781
H          -2.66659747231898    1.67692467200105   -2.09860177244106
O           1.35270220613719   -0.34842792152365    2.07708921570045
H           1.92338059226474   -0.26471929318981    2.84139872810730
O           1.64909322889235   -1.44770516514683   -0.41171747602993
H           1.71480649585356   -1.10370177130161    0.49922571459353
H           1.31141148809475   -0.69933763347205   -0.94162076825566
O           1.69015066347021    2.68490272805606   -0.96323551225970
H           1.13770424391798    1.95749577549308   -1.31274699010996
H           2.58112524640568    2.51825876600520   -1.27481238802329
O          -1.27217058619443   -1.13530132709484    1.85340569665072
H          -1.05114086397315   -2.12562695505026    0.63960270016686
H          -0.36522860458551   -0.92540188052249    2.14457383606512
H          -1.54526689773915   -0.35816208714933    1.32798776277942
O           0.48310991090169    1.99090444013646    1.37891127326669
H           1.07322949525455    0.58503565590496    1.83352193537008
H           1.01138964788322    2.40848721343663    0.67456100089378
H          -0.33412672053080    1.69634210776991    0.93430888106520
N          -0.75355653320081   -2.48566570771451   -0.32119861897186
H          -0.96321624237639   -3.46786424730612   -0.45791064824334
H           0.28726789587650   -2.26817420314202   -0.40733369434335
H          -1.25127423008038   -1.87255450955967   -1.02455600161628
