    26
        -50.47001089  Gyration_radius:  2.46317614124 Dipole_moment: 2.614
 S          -2.20461952728132   -0.17005930256287   -0.15644715100798
O          -2.38569559820478   -1.46251940477487   -0.76957171598130
O          -1.74192850145911   -0.21622276843418    1.21059084426489
O          -1.38228704070477    0.74492607817573   -0.96105937752911
O          -3.64354484052186    0.51418377151342   -0.14759218539288
H          -4.20919277968922   -0.23961390629330   -0.01819040007813
O           1.86649986548909   -1.14736066186678    1.25066300924550
H           2.37118218099124   -1.87856347471299    1.60868667204888
O           0.52169984563388   -0.31630750428124   -2.43107776337024
H           0.25148109719824   -0.37103438339827   -3.34845987157738
H          -0.23510896179620    0.08699622767300   -1.94253269395238
O           2.43851392184859    0.69690501984674   -0.70934207534512
H           2.44213814520757    0.00960378130063   -0.01745715209067
H           1.94593111595090    0.31416298320652   -1.45422883895771
O           0.14728244887703   -2.18927141064471   -0.42831421639258
H           0.43530289494369   -1.77759095320429   -1.25779447244064
H           1.14899824736102   -1.55752388652343    0.69729835821040
H          -0.81939345259844   -2.05932622610402   -0.41540968996764
O           0.32025481011170    0.66700947900836    2.60969787847803
H          -0.53884723114057    0.29891524999946    2.31884855404033
H           0.96854321261385   -0.01153723787205    2.34736046898439
H           0.43045494671585    1.63480762329250    1.39233324315383
N           0.46196877053253    2.05051774084436    0.40242314772994
H           1.33910498387820    1.67820945055104   -0.06618219401875
H           0.42616785137820    3.06287108883749    0.40569555741330
H          -0.35490637500862    1.63782260507709   -0.11993792549338
