    26
        -50.47229255  Gyration_radius:  2.48023534125 Dipole_moment: 1.996
 S          -1.05854477009309    1.91275923303812    0.64492138293331
O          -0.04922626075828    1.11779034760617    1.33831633141794
O          -0.48236149653120    2.69198216126371   -0.43361759064979
O          -2.19560804901051    1.10818672867400    0.24771361334435
O          -1.60427780101322    2.96564070550331    1.69612922780180
H          -0.92534819850454    3.63121180329444    1.66474406760167
O           2.00481727149536   -1.84896326656663    0.12845789567016
H           2.87156803547112   -2.25388095156867    0.16391014365374
O           0.37337234181052    1.00971246657545   -2.20631905187237
H          -0.00014630296477    1.65930217647462   -1.55714298383840
H           0.21015429930253    1.38261233235763   -3.07408134424376
O          -0.00796559453253   -1.66209224313761   -1.74025630898594
H           0.76644052977696   -1.87845088747629   -1.19006990624740
H           0.11151135732160   -0.72874181460460   -1.99946584540234
O           2.17402933097495    0.74356967644490   -0.07404112024592
H           1.84799326770896    0.93790024757565   -0.96344866628607
H           1.43284497938951    0.98842882335808    0.51858767624410
H           2.15512379285405   -0.86158550450809    0.07006576976813
O           0.08965585903778   -1.46566739703797    2.08099297701088
H           0.09396527486021   -0.48973571015779    2.04122118973750
H          -1.12142345090533   -1.61734580271063    1.05948925631769
H           0.84998052788814   -1.74015868092960    1.53727140498592
N          -1.75947762345927   -1.46709479268470    0.21993770052386
H          -2.57964268452903   -2.06140386633895    0.24327599286600
H          -1.16932112212575   -1.63102753732916   -0.64892257415459
H          -2.02811352710018   -0.44294832833938    0.23233084455157
