    26
        -50.47229279  Gyration_radius:  2.48031789644 Dipole_moment: 1.994
 S          -1.34002839157121   -1.40375890418984    1.19527423000559
O          -2.54038546424719   -0.97912732721504    0.50150544870896
O          -0.25480131859989   -1.70487743057813    0.26623786712328
O          -0.91381584398548   -0.49826407920205    2.24248446880171
O          -1.71369005186393   -2.76745822227876    1.91093061870960
H          -2.27256656587542   -3.17476884137302    1.25780049915134
O           1.73307536458591    0.59403114583346   -2.02452450022938
H           2.13575280813262    0.66161222775899   -2.89043609469366
O          -1.99482614408648    1.27967787397506   -0.64090706752066
H          -2.22571243383880    0.44305126320877   -0.16164785946011
H          -2.77313812888808    1.83652342662723   -0.58667817099537
O           0.50638203696935    2.33547398165442   -0.28071658849971
H           1.01331446401415    1.88309764339886   -0.97900633284414
H          -0.41836986521247    2.04952308062139   -0.40606581412874
O           2.33961682246506   -0.99684112340749    0.15009007168688
H           2.32386607405851   -0.49609131581845   -0.68541695438243
H           1.88002960750603    0.10273930162438    1.20513159801240
H           1.48801557536506   -1.47473950439945    0.17043801441888
O          -0.57233532157456   -0.61525049424901   -2.13986124831305
H          -0.50515591210459   -1.14382560124101   -1.31729086796004
H          -1.21727142429243    0.07488584617498   -1.93287930331499
H           0.86872036563068    0.10623615921609   -2.15085032502451
N           1.28442183256731    0.81507554587461    1.72700840491572
H           0.40668004269209    0.30397563498770    2.02633892748810
H           0.99682316971162    1.55414049361669    1.01906070890348
H           1.76539874498924    1.21495923301835    2.52398028881746
