    26
        -50.47229257  Gyration_radius:  2.48025876589 Dipole_moment: 1.992
 S           0.01555600679129    2.18438667747448   -0.65091223958615
O           1.42948715989259    2.34206344842756   -0.37111727911746
O          -0.25222320060130    0.97513850889152   -1.42395571750522
O          -0.82984863347867    2.26949152489457    0.52217903147907
O          -0.38215714409055    3.40852521276550   -1.57534102829736
H           0.38662367280992    3.48181436342463   -2.13085386136869
O           0.09035742819636   -2.68998223087246   -0.45827016921453
H           0.35263531399052   -3.55205079230358   -0.78153077085217
O           0.17469029732786   -1.38169019856902    1.96247973016373
H           0.90346412639467   -0.76037679850013    1.77422241028777
H           0.16862258659712   -2.00667021825523    1.21509373055293
O           2.11409059196576    0.38981456073860    1.18604270830873
H           2.75471406866142    0.72262989903839    1.81650210804666
H           1.84610362185593    1.16894408333542    0.63459447589964
O          -2.01281359291418   -1.04356576338333   -1.16007466940677
H          -2.16703895521107   -0.45228248606512    0.30970680249470
H          -1.46281838620188   -0.30145662697100   -1.47763973840846
H          -1.38564344058243   -1.77575080848106   -1.01986034487542
O           1.70220254632107   -0.82604597337477   -1.30562278310454
H           2.16386601330215   -0.52698297051877   -0.51025292185416
H           0.74235197341279   -2.03368094546592   -0.83930958761693
H           1.04021918950170   -0.12566052058733   -1.48366143361662
N          -1.93962421136532    0.01620936111193    1.23881451298712
H          -1.15156368340745   -0.54340085208384    1.68140666806021
H          -2.74705051522831    0.08724069045405    1.84662134751729
H          -1.55420283773493    0.97333887660246    1.00073901750685
