    26
        -50.45538158  Gyration_radius:  2.56580072939 Dipole_moment: 4.106
 S          -0.75611091996464    0.19823325455448   -0.70317348240702
O          -1.59651712312813   -0.80756910166462   -0.05782772154738
O           0.22949177749361    0.70780199282609    0.28227837039154
O          -0.09462833760274   -0.27177751968215   -1.89558897229580
O          -1.67941792633640    1.38655683452556   -1.04975372675004
O           1.37598288362316   -2.60294172316315    1.70513256725861
H           1.03813444679859   -2.65774722018600    0.76842002261701
H           1.04175465426591   -3.38212039881445    2.15406172194001
O           0.21253503527758   -2.65422789263015   -0.63340695082951
H           0.53307589267866   -2.07985587315055   -1.34179058806581
H          -0.63676377028683   -2.23824112379468   -0.40017031921500
O          -2.09141107608312   -0.89599244805249    2.47905657645470
H          -2.71537811405394   -0.20130695591651    2.69734227791217
H          -2.04495776212853   -0.92516622208034    1.48783367506539
O          -0.26419463162010    2.16729545031639   -3.01282640917381
H           0.48706246219141    2.55623704633922   -2.50001297113685
H          -0.04362015835658    1.22700067984879   -3.09482752025793
H          -1.24317438601722    1.82534369929709   -1.85036787191105
O           0.40109581579270   -0.39157473940740    2.47350461768983
H           0.37113142235892    0.14042758252925    1.53563778160301
H          -0.58551713558219   -0.60347778526502    2.64552728008940
H           0.86027077495108   -1.28791080724376    2.23616774854807
N           1.65578086911313    2.72728546834191   -1.21440545001221
H           2.60837406028605    2.44543826507422   -1.40914045222139
H           1.24510852279384    2.02134934717887   -0.60396198799843
H           1.69189271355624    3.59694022020331   -0.69770823573068
