    26
        -50.47229248  Gyration_radius:  2.48023170711 Dipole_moment: 1.993
 S           0.38043433894772   -1.63571962104899   -1.54115325824059
O           0.62125063338410   -0.68611749196459   -2.61007228836625
O           1.12422616906537   -1.29150461809659   -0.33291200299327
O          -1.02228356677879   -1.86384883421875   -1.26118724281771
O           0.96265959995895   -3.01871157912660   -2.05080525427354
H           1.75070948500450   -2.73574120044175   -2.50236536325660
O           0.73730700601110    1.66031785529835    2.03815968205456
H           1.22172580271233    2.29065124846475    2.57151127685517
O          -0.36795951519111    1.58038352452604   -1.84222765268133
H          -0.75348896300035    2.01123295891709   -2.60667432206428
H          -0.03600218426230    0.70326060298111   -2.16377543023867
O          -1.60842453313671    1.68768678261101    0.59753825775217
H          -0.85382461045280    1.83697850489857    1.19546488030281
H          -1.23339662610452    1.71153149427080   -0.30319971518007
O           0.44866941026583   -1.07699812741793    2.26368299718883
H           0.86561664349822   -1.29668739114830    1.40813366415887
H           0.62379068823564   -0.12690569347615    2.38909216376863
H          -1.02903593184058   -1.06716586974458    1.67249101727262
O           1.91468800485430    1.24739312411594   -0.24956349435377
H           1.31589009087809    1.63555275366694   -0.90221292778671
H           1.25921948234310    1.54378246757526    1.19258790044345
H           1.76514493061207    0.28155827526587   -0.32255020449801
N          -1.85490140455350   -0.90246139383536    1.02032510653719
H          -2.71895148448165   -1.28896716764490    1.38149804929334
H          -1.59405370884283   -1.34644890118758    0.09506522983022
H          -1.91900973576557    0.14694829483488    0.86314891478450
