    26
        -50.47229272  Gyration_radius:  2.48029623989 Dipole_moment: 1.994
 S          -1.68793949537011    1.43777444216699    0.52795082179802
O          -2.71930177783862    0.46007865390879    0.24019204838767
O          -0.63151015548981    0.88010425095740    1.36732069355624
O          -1.15033539921880    2.08996501770364   -0.64839963459084
O          -2.39265067102344    2.57133330449236    1.38226273025272
H          -2.97786058911458    2.05759925607869    1.92868847806070
O           1.95417630471858   -1.80731366091069    0.60787661937537
H           2.42012623293756   -2.55731226127261    0.97787163916759
O          -1.62618337137771   -1.38945840649744   -1.20528744822845
H          -2.06306725220588   -0.65803102493623   -0.69822372900559
H          -2.26909507078292   -1.67899294641671   -1.85460760951812
O           1.01236948495887   -1.10591539210817   -1.88199096266575
H           1.45713644335072   -1.48187378968164   -1.10092821171381
H           0.05860216065024   -1.24500689243026   -1.72830597991240
O          -0.54324965203735   -1.77871812328775    1.35128913614123
H          -1.03810556038052   -1.96284093872379    0.54116190087888
H           1.01614970258407   -1.85810057702266    0.95218612231793
H          -0.64716321698801   -0.81397348165472    1.48913849514537
O           2.05600367078403    0.88474622496209    1.21609653871893
H           2.20488046528081   -0.07292840221574    1.11728332745627
H           1.77148863821541    1.33351939723077   -0.28422181596491
H           1.12247959675808    0.96481147497800    1.49205938336787
N           1.30798439311502    1.43295249760224   -1.23807178910839
H           1.23436969470227    0.45503664677386   -1.64843747917323
H           1.80787980795341    2.06791149086385   -1.84909033304214
H           0.32281560413515    1.77463325002158   -1.05381293088192
