    26
        -50.47229278  Gyration_radius:  2.48031247149 Dipole_moment: 1.994
 S          -0.49334213845871    1.93964160770913   -1.09068194764116
O          -0.01235378227375    1.72307177955142    0.27066398170352
O           0.55930365167333    1.75108716252923   -2.06987456906994
O          -1.69424164784495    1.17686296835070   -1.36299155031785
O          -0.90494871543925    3.46695836633281   -1.18678421652325
H          -0.05981887667908    3.88022575847455   -1.32764905870135
O           1.17998729145227   -1.45982915514538    1.98272230570031
H           1.82572463748179   -1.81144270604869    2.59580435958063
O          -0.11892204101156   -2.38922039828436   -0.25943798203863
H           0.37562740092313   -2.25095745579300    0.56853029209692
H           0.36368632018675   -1.87893918699069   -0.93717843260563
O           1.22971958751002   -0.74872420499679   -1.98878496958986
H           1.42418097478776   -1.03404025543599   -2.88294024596747
H           0.94030010949043    0.19665941451177   -2.06247418047767
O           2.24184151518387    0.31612387611245    0.39872646762922
H           1.49940271526753    0.95533840069580    0.37173662895283
H           1.65762131331965   -0.77799935483744    1.42778113319983
H           2.23330427671852   -0.10274733529386   -0.47283244254042
O          -0.92666073731831    0.28671912851769    2.35541586553135
H          -1.82148757133990   -0.40029580503444    1.23258828386029
H          -0.18893786446850   -0.34368593556225    2.44162507285215
H          -0.59017663617885    0.98451437139914    1.76051175972819
N          -2.14091899600437   -0.79155818016823    0.29483674518686
H          -1.43955275890281   -1.54114436177144    0.01860668644720
H          -2.05012356350591    0.00031183041620   -0.40227819768775
H          -3.08921449453338   -1.14693032867741    0.32435822428205
