    26
        -50.46547016  Gyration_radius:  2.52254362305 Dipole_moment: 4.971
 S           0.81901804929461   -0.30092200534416   -0.14052418587861
O           0.73688470291754   -0.97514518746547   -1.42219428007012
O           1.26817040813577    1.09508162887918   -0.33224317489982
O          -0.66692555233125   -0.19847761440002    0.34842295281766
O           1.58412656120862   -0.99002531733753    0.86705113446743
O           0.65925417775699   -1.81186297995342    3.22149821758676
H           1.09709567660759   -1.58765627649063    2.37376562755226
H           0.34849886115383   -2.71345020763319    3.13237982534287
O          -1.53343456982213   -1.62033781104595   -2.58837270453612
H          -0.66468594067293   -1.46633092828809   -2.15063986655917
H          -1.80833093640912   -2.49922617096730   -2.32541250620450
O           1.88506673958849    1.50876895375591    2.23222114122188
H           2.40319769015573    0.72020931881872    2.41732034941899
H           1.75178921405763    1.49985876642724    1.26623722269205
O          -2.34622845204023    0.72557165119344   -1.62439393094699
H          -2.03884146186932    0.52684942905132   -0.72492691127578
H          -1.02028010741002    1.25349885373714   -2.22894271638707
H          -2.34472285218978   -0.14815429151109   -2.07129242085435
O          -0.54315165258370    0.54976690652362    2.74228264541945
H           0.28446801346540    1.08554502974720    2.71275613409055
H          -0.66598036458097    0.12542636996588    1.33463364361707
H          -0.27647774065057   -0.28842129944098    3.16941802828226
N           0.01162739368537    1.38243273658073   -2.52227850361574
H           0.16064305520379    2.20348129903731   -3.10021482356101
H           0.30860051320321    0.52292544947833   -2.98742640524683
H           0.59061855411622    1.40059368667488   -1.59912452247944
