    26
        -50.47000633  Gyration_radius:  2.46321099583 Dipole_moment: 2.719
 S          -0.33843654328808    2.14811745417775   -0.42514296251726
O          -0.28495975673728    1.85690357457823    0.98696479169997
O           0.91526334174663    2.56576874672781   -1.00333677171308
O          -0.97625752175030    1.04607182270903   -1.16230507630324
O          -1.33069004970782    3.37911513303643   -0.62465753680039
H          -0.71500145605994    4.09904418107560   -0.71087324770248
O           1.45249151005304   -1.37964345332210    1.53805158900493
H           2.25213997014033   -1.64694816465473    1.99266578693315
O          -0.05454181828277   -2.59838265390060   -0.41520810485882
H           0.56048705829838   -2.35852636372971    0.30255544896173
H           0.25774766772629   -2.11539739673726   -1.19832095430559
O           0.60841127856658   -0.70199020078354   -2.31863304257253
H           0.66376440742053   -0.53644921166516   -3.26050566261540
H           0.00339828856348   -0.01384540390865   -1.95095350168773
O           2.18765554662432    0.33846800535592   -0.29877462297706
H           1.83510603978505    1.24005007806548   -0.41583212641895
H           1.72316170696462   -0.65149889414364    0.91727539033799
H           1.91674051837026   -0.13311888729684   -1.10173197491881
O          -0.77072743338782   -0.17678436292692    2.60601628226297
H           0.05805295447985   -0.66773596589935    2.45870062646308
H          -0.59207622130805    0.70761666759003    2.22737488221608
H          -1.59008488246307   -0.64864755967183    1.36556406698488
N          -1.91030571226407   -0.89047026247410    0.36933957884963
H          -2.90049144826343   -1.09866130256161    0.32059833982301
H          -1.30999464077213   -1.69996968026523    0.03506305906423
H          -1.66085282446994   -0.06308588932601   -0.23389423724643
