    26
        -50.47229238  Gyration_radius:  2.48018865338 Dipole_moment: 1.992
 S          -0.74808528437465    2.02730341153344   -0.72504733114282
O           0.06305565024815    1.68681735887846    0.44016818909733
O           0.02067608869696    1.96392470010950   -1.95277684555287
O          -1.98040539950914    1.26700406300013   -0.76207832859928
O          -1.16785293134432    3.54582860321869   -0.55439384611358
H          -0.38186911924471    3.99247722011802   -0.85060494425182
O           1.64131203938360   -1.62362920458542    1.45752496210629
H           2.42064649346772   -2.01895238984451    1.84842098413948
O          -0.18850788595477   -2.35405609168814   -0.46539585195449
H           0.50094570746760   -2.28802126105090    0.21978739750719
H           0.10681469963097   -1.76704062068516   -1.18702683506229
O           0.67873222598583   -0.51599432101699   -2.30176519108782
H           0.38392816052578    0.42531132555317   -2.20200144844634
H           0.63865261974595   -0.70538368376082   -3.24046878514158
O           2.27047491083625    0.32550164698195   -0.15356342881423
H           1.54814863244614    0.94729086922684    0.07469411348259
H           1.96398944950231   -0.87893771705725    0.87248342132942
H           2.03814087356281   -0.00401675471288   -1.03255782893327
O          -0.29554924171224    0.02783890674862    2.52905541899391
H           0.43776454393570   -0.59091685063535    2.36026302724965
H          -0.11939784068471    0.78918997017616    1.94304534376281
H          -1.44872890732666   -0.56403700015237    1.60547856983758
N          -1.99764623270008   -0.86673524619851    0.74432994604771
H          -2.90849104299971   -1.24470524315270    0.97651075800415
H          -1.39228070441585   -1.56877448973166    0.22401826253718
H          -2.08446748868943   -0.00728719851880    0.13190027696878
