    26
        -50.47229220  Gyration_radius:  2.4799520795 Dipole_moment: 1.991
 S          -0.78923657981391    1.21498618131356   -1.75890968324752
O           0.53828639107507    1.50447994071856   -2.26496592725868
O          -0.95335896201109   -0.20195092386802   -1.44747160612657
O          -1.19453099409109    2.05817095407391   -0.65305543679225
O          -1.78584967392709    1.53384344857656   -2.94916884008149
H          -1.29236386652166    1.21645119525299   -3.69799586286985
O           0.66737139554957   -2.32761028334084    1.26223953787689
H           1.03659236006380   -3.19098213058784    1.44865616662833
O          -1.91391464000710   -1.53257507739028    0.68568048974030
H          -1.71992855134260   -1.18729770006783   -0.20722349217370
H          -1.10088054271110   -1.99689067740819    0.95490196191540
O           2.18922253538853    1.05897192092229   -0.32050309746632
H           2.87692760281223    1.72562443222470   -0.35578869607604
H           1.55778238103674    1.28202888473239   -1.05152527803729
O           1.34696230654694   -1.49589933556489   -1.11200563296315
H           1.94112860097375   -0.75117532266137   -0.94647559934770
H           0.95653932079418   -2.08980523085910    0.33442575319739
H           0.49875773229762   -1.08040557625481   -1.37361156519673
O           1.16927227709737    0.24946392835972    2.08921198774472
H          -0.35233086554453    0.70593613051365    1.95742897003139
H           1.09264654150478   -0.71288195289341    1.95791321802953
H           1.59789901261048    0.58753795237924    1.28014644387043
N          -1.36154603610334    0.84270600395974    1.65285487292111
H          -1.74018325611982   -0.11937141893505    1.39679188273239
H          -1.34784315334364    1.40347253377272    0.75466973276825
H          -1.91742131622577    1.30317213303223    2.36377971019634
