    26
        -50.47000591  Gyration_radius:  2.46325506218 Dipole_moment: 2.729
 S           0.25788386418100    2.12251934729419   -0.58085425537776
O           0.19887864526726    1.93546232541134    0.84852537948293
O           1.59048980551342    2.14685661407185   -1.13254091459001
O          -0.63467021019606    1.17652369346227   -1.26884522562643
O          -0.36271522627833    3.55416613772443   -0.90444498018510
H           0.42593166800524    4.07275196984296   -1.02246215328337
O           0.99564051346221   -1.59430458226899    1.68613532654028
H           1.68401739822877   -2.02936945947979    2.19055950959601
O          -0.73863468791874   -2.51403921274037   -0.24195438063876
H          -0.09803037282033   -2.39177937985048    0.48313158210517
H          -0.29097667183306   -2.19185093735813   -1.04188234093136
O           0.45050867314292   -1.01119784065280   -2.23831898738472
H           0.04371447093888   -0.16151380441983   -1.94268220915310
H           0.56864394716332   -0.93780057290413   -3.18603184938460
O           2.20633505031673   -0.27803848109113   -0.22892094487447
H           2.11001275718288    0.67324062897940   -0.42056837199229
H           1.46568718859368   -1.01350790359263    1.02986166868256
H           1.83723823434043   -0.72015763816603   -1.00914407572226
O          -0.84906195703325    0.23130309643476    2.57802065281254
H          -0.17847676000260   -0.47123956177684    2.49845913019999
H          -0.43211040328538    1.00569907895586    2.14920688972631
H          -1.73664469472455   -0.09853249725385    1.33842699381453
N          -2.08744925850662   -0.32123702393640    0.34815179386778
H          -1.61213474494270    0.36226421166686   -0.29810121166478
H          -3.09587435457444   -0.26237834975506    0.27213466968207
H          -1.71820286310681   -1.28383984915649    0.09413831409214
