    26
        -50.47229287  Gyration_radius:  2.48016510263 Dipole_moment: 1.993
 S           0.29068790638799    2.09359441153307   -0.85185666955275
O          -0.28259412138943    1.74280308826135   -2.13667186822026
O          -0.54167304518905    1.63557032623498    0.25656907705855
O           1.67075308983015    1.68382924535130   -0.69120681813626
O           0.28720743106426    3.67737617382921   -0.79523000922153
H          -0.53568899807549    3.87876200269571   -1.22790121173983
O          -1.33932035673625   -1.88866975907043    1.44906004455910
H          -2.03368442625558   -2.44653467463080    1.79997544843110
O          -0.24213358186752   -0.84176046464888   -2.29126474260522
H          -0.21119577109628    0.14868553455030   -2.26025566419393
H          -0.03957256535813   -1.08198720053857   -3.19679050718229
O          -0.03014443966521    0.28930536539541    2.53030953459394
H          -0.32167298587255    0.93196818001247    1.85499112747779
H          -0.55604312434586   -0.51176587557603    2.35474556392972
O           0.83469913793118   -2.24756964493322   -0.20132114977091
H           0.07356215154623   -2.31626169868647    0.40296437849576
H           0.48933155142580   -1.81296614947661   -1.00406737512131
H           1.70742031907144   -1.12494382474717    0.51916880514950
O          -2.24418555915688   -0.29802417604573   -0.40610369076712
H          -1.73612920549584    0.50704006329512   -0.17302014427142
H          -1.83201632877077   -0.61756283167389   -1.22042975240026
H          -1.76771767353149   -1.30115857037063    0.76178750380819
N           2.04686933695840   -0.25189098832205    1.02174215574310
H           1.33872537703863   -0.04258933455218    1.78940051113343
H           1.98580515381462    0.55246864387821    0.33575486918044
H           2.98871072775257   -0.35771783175170    1.37965056362646
