    26
        -50.47229283  Gyration_radius:  2.48049257407 Dipole_moment: 1.999
 S          -0.07333222357069    0.74327969530933   -2.15398052361754
O           1.31617895337131    1.15754493212857   -2.14446027667899
O          -0.24148438033793   -0.60408283275182   -1.61775290552172
O          -0.97338160090427    1.68711077555415   -1.52358476688850
O          -0.49445881536489    0.67821774901515   -3.68038779800413
H           0.29742363934733    0.33301435705630   -4.07868971467093
O           0.25235123873061   -1.92971323110486    1.91582372940924
H           0.57488687144231   -2.67383013529391    2.42448062540030
O           2.03785637410040    1.32642687975182    0.33654305153587
H           1.75249333028081    1.31556732540862   -0.61289067608682
H           2.63183224868229    2.07362941649005    0.42353057109212
O          -1.90260345452601   -1.68079731705067    0.20609981380575
H          -1.24433836488797   -1.95181020029876    0.87110716819632
H          -1.37938783855305   -1.47004421043594   -0.59135916259681
O           1.79808850002794   -1.42778125768773   -0.12096735943098
H           2.20823497529517   -0.57827543700513    0.09200499696328
H           0.88442979210857   -1.81482339469735    1.14876755994243
H           1.10830763262079   -1.20878015640327   -0.78182734001572
O           0.16356401912459    0.79916113189659    2.26320242791309
H          -1.19241848521970    0.97076132514173    1.44309581217941
H           0.22250415625939   -0.17077286598350    2.33465939431242
H           0.86557837364474    1.05549378999916    1.63550631920866
N          -1.98958642116426    0.88533781630617    0.74503253339557
H          -1.64625551387001    1.27432827968030   -0.17808192257473
H          -2.82489078915956    1.36625184070230    1.05711727803352
H          -2.15159223748233   -0.15541428573899    0.58701116471170
