    26
        -50.47000474  Gyration_radius:  2.46313318819 Dipole_moment: 2.753
 S           0.10430627295867   -0.90582067263153    2.01913071947477
O          -0.46972092626723   -2.21371114480873    1.81739100826483
O           1.40286982483218   -0.71578715881130    1.42023800779698
O          -0.80728321904765    0.18776737581210    1.64681142572317
O           0.27524275670111   -0.75615997460101    3.59648219194123
H           0.26463137272795   -1.66760413527855    3.86844280504364
O           1.05806587935260   -0.38466270882643   -2.26100489105274
H           1.36978431751942   -0.88441171911826   -3.01640963383610
O          -0.98571330666644    1.43448700807230   -1.97286195766096
H          -0.28651397815625    0.82760291290221   -2.27935800136658
H          -1.66227595252746    0.86798914910488   -1.56611577950525
O          -2.45780673963730   -0.25443092087838   -0.34892936190208
H          -1.89389036119922   -0.10097275128133    0.44687875465519
H          -3.33908271772424   -0.44017992594997   -0.02257800492750
O           2.55514602926688    0.88393076224141   -0.34237628016291
H           2.37369865224712    0.23330674775479    0.36551714551253
H           2.23106941660064    0.44804854870636   -1.15142054621247
H           1.31323281606160    1.75907320869056    0.01134154386564
O          -0.39623296161092   -2.03455181869291   -0.83626332277614
H           0.59844432907959   -1.04093025875840   -1.67200030771121
H          -0.27569610229305   -2.23453346490210    0.11043305099478
H          -1.25934063168565   -1.59471941644061   -0.88218450211321
N           0.31884148326525    2.10471453080631    0.22361151346566
H           0.30786708112249    3.04476338575848    0.60088699524706
H          -0.09996320607256    1.41353906000879    0.90013281629778
H          -0.23968014889410    2.02325338092839   -0.67579540896521
