    26
        -50.47229286  Gyration_radius:  2.48010363753 Dipole_moment: 1.995
 S          -1.59062616214388    1.56111487710479   -0.47517463058424
O          -0.49412197801996    1.05543554249581   -1.29561605797297
O          -2.67812381629616    0.60662439494145   -0.38168643034102
O          -1.12165306101322    2.04668979431228    0.80643712514565
O          -2.18333185365458    2.81775603671264   -1.23753921943317
H          -2.75311817923911    2.39931644218513   -1.87407076642531
O           1.92946605999547   -1.81187444206156   -0.67468394036462
H           2.39504591697395   -2.53466777139928   -1.09576609668229
O           2.17220658129195    0.92501865072289   -0.95458242516109
H           2.27942414218696   -0.04324882617617   -0.95824277138290
H           1.26546647494187    1.07689829087638   -1.28454863219793
O          -1.76183400708159   -1.43978400298322    0.91382513734037
H          -2.46176987345685   -1.77172930031320    1.47830362471049
H          -2.13331722131004   -0.63787528862374    0.46460058820235
O          -0.50186599943023   -1.58907520606555   -1.58558152407918
H           1.01891353858686   -1.78212987945368   -1.08823647205947
H          -1.06311812076253   -1.84133811326502   -0.83960034728215
H          -0.56031551764687   -0.61130019098434   -1.61748133187799
O           0.82688231131902   -1.35794855653895    1.80634887965751
H           1.31597280579268   -1.66159216764437    1.02030182968342
H           1.12265334169519    0.20803965554029    1.77448283685711
H          -0.11678345137081   -1.43437618843725    1.56937616781225
N           1.26140901424651    1.22221322139257    1.48760973910025
H           1.79156401908030    1.21188206474286    0.56379712213325
H           1.73564081606297    1.76109217975173    2.20249832649626
H           0.30533419923879    1.62485879318104    1.27522925870500
