    26
        -50.47229286  Gyration_radius:  2.48036258659 Dipole_moment: 1.995
 S          -2.15079838430269   -0.34841187206051    0.66916672300727
O          -1.21253087010044    0.71026367093611    1.03004974791727
O          -2.68312156813946   -0.16398299760865   -0.66692810993641
O          -1.59103534423160   -1.66372153342306    0.90349928547497
O          -3.38772289227592   -0.20979987350273    1.65015627437572
H          -3.88422268082870    0.48395633359777    1.22929410451730
O           2.23451483938320    1.52896117063084   -0.35764297212566
H           2.81965377136983    2.24683581015246   -0.59991668425424
O           1.25922095730100    0.71630895287034    2.09533665144663
H           1.74467584437170    1.11652219118368    1.35159114474433
H           0.31674243901011    0.86681972806744    1.88774142379324
O          -0.70165400505757   -0.43199311828025   -2.31222405490184
H          -1.47300375960031   -0.38138887718292   -1.69140500229253
H          -1.02386111308425   -0.88239798792371   -3.09456347814357
O          -0.22492859318831    2.02929935715137   -1.05836689774463
H           1.31546412891842    1.80401111928615   -0.64190171556023
H          -0.40822151092341    1.39473041918124   -1.76464095393805
H          -0.68129724033923    1.66147045216299   -0.27296434004592
O           1.76377419216386   -1.02310165495888   -1.27609024433392
H           0.90790035082628   -0.86970617276163   -1.71938215365338
H           2.09960349700575   -0.13702322865944   -1.04943059339660
H           1.37631306081827   -1.58920996057619    0.16268822828715
N           1.00850560240655   -1.71877938567381    1.15161255954524
H           1.39893448038885   -2.53851596488476    1.60112152648421
H          -0.04695983826471   -1.78093309338826    1.09185908327489
H           1.22405462635850   -0.82021352432828    1.68134043744934
