    26
        -50.46547037  Gyration_radius:  2.5228720247 Dipole_moment: 4.987
 S          -0.27306574622948    0.50653427426316    0.67028658047398
O           1.14170549090953    0.80489763425641    0.98118930229344
O          -0.80389065745345   -0.43675614700496    1.63581746262034
O          -1.05756686173568    1.70037473981343    0.48393414226232
O          -0.24567366560241   -0.28535299355540   -0.68249612892083
O          -2.14477142703157    2.49548955218968   -1.80953844290345
H          -1.82323740656732    2.28384817869608   -0.90817309683478
H          -3.03426977857187    2.14478149093018   -1.86593214126792
O          -1.34479139453618   -2.95252520623511    1.08072307320326
H          -1.22910478535915   -2.00122374490079    1.30822166500556
H          -2.25273256409941   -3.04502747540420    0.79025176911579
O           1.28076492142280    2.97590401542172   -0.56624531361200
H           1.37588237538686    2.24168127245017    0.06850638814280
H           0.48364132466377    3.43811581990841   -0.29142574614418
O           0.86460987366254   -2.78517960390979   -0.39721193121804
H           0.57111212881232   -1.97648004916126   -0.84775399315780
H           1.47541016468326   -2.15073654231602    0.87796181196209
H           0.04665134775960   -3.13204293514601    0.01947947420092
O           0.23872525100911    1.42300060315623   -2.45806241845329
H           0.78587592568804    2.05964310664419   -1.94021364852026
H          -0.03107345416459    0.38172308039423   -1.44837536173302
H          -0.63746733163582    1.85203221213432   -2.52502839616233
N           1.65116248723778   -1.55842989816843    1.76449845398345
H           0.85374888911677   -1.69449797257599    2.38807778278103
H           1.57443043528382   -0.51645699070989    1.45434856521166
H           2.53392445734921   -1.77331640116395    2.21716014767064
