    26
        -50.47229293  Gyration_radius:  2.48022602076 Dipole_moment: 1.993
 S           1.20422687706834    1.76837526575813   -0.78489763885736
O           0.47505112993654    1.60889768719374    0.46972676028867
O           2.45192580117744    1.02961665129555   -0.78026442119955
O           0.36306607099556    1.49623316225017   -1.93238272844640
O           1.60829581761215    3.29775962426109   -0.88184663172443
H           2.38883218914632    3.32026999679986   -0.33859534828487
O          -1.21376896501312   -1.45418783989735    1.96779400194089
H          -1.37930073310145   -1.92140041977408    2.78682656393504
O           1.83231209300288   -1.48286380868966   -0.67975494565997
H           2.07409306056448   -0.52589845343324   -0.77245308944583
H           2.45618494597860   -1.96481177246589   -1.22486873810387
O          -2.07916130976438    1.00987894641882    1.07035848490849
H          -1.93263531166081    0.16566866065843    1.53399559257735
H          -1.19212068142949    1.41255528930710    0.99922869662399
O          -0.82154730095376   -2.16208971262744   -0.66367688276671
H           0.13873268416346   -1.99829820918937   -0.72348655589077
H          -1.03691229389651   -2.09246191907627    0.28391436039298
H          -1.49193421552962   -0.83387730343807   -1.23630569061300
O           1.21768062083002   -0.52087612917478    1.88036866403401
H           1.03080405312062    0.34288224133571    1.45660877090787
H          -0.27392515425423   -1.11508421816027    2.01965029291279
H           1.65109535507490   -1.04095985449439    1.18987582032447
N          -1.81956469879004    0.16411785824935   -1.39946315161664
H          -2.55745001263984    0.21658516529665   -2.09167013353752
H          -0.97528763733544    0.73030295976059   -1.69601382535703
H          -2.11869238429761    0.54966614184525   -0.45266822735157
