    26
        -50.47229283  Gyration_radius:  2.48025948055 Dipole_moment: 1.994
 S           1.17601839793992    1.85292752674210   -0.61475931701109
O          -0.03314132455298    1.27107951998454   -1.18979636056741
O           0.90203146960821    2.54332052236084    0.63051372886133
O           2.24817819440546    0.88281923968813   -0.52669644475368
O           1.66696354066744    2.96810278989037   -1.62816255699150
H           1.10686676954816    3.69888230848691   -1.38913019923222
O          -2.22415168962139   -1.58512636294787    0.04225248403203
H          -3.12980425206255   -1.88450826303446    0.12350228710780
O          -0.63642720327377   -1.15892650083398   -2.17714289849534
H          -1.32215144423598   -1.41801522214610   -1.53552757928923
H          -0.50509739753285   -0.20245148106509   -2.02915180952165
O           0.14486530588877    0.74535396963784    2.33319794778117
H           0.50307433576902    0.97914893596197    3.19098725655623
H           0.48448593407255    1.43000188270123    1.70172041341905
O           0.08538237810951   -1.86736449406762    1.51377166941560
H          -0.79318840255944   -1.92307977510817    1.09633667922308
H           1.03749146336234   -1.82066022007809    0.23620424500758
H           0.13588373404893   -0.96875839409602    1.89131147406014
O          -2.01410575177163    0.96039445144033    0.55837451412938
H          -1.35885927623085    1.19826751460880   -0.13049574373401
H          -2.23143582116054   -0.60369542030916    0.23674548533001
H          -1.51851211830192    0.99846694951936    1.38785639786567
N           1.48702409303056   -1.60944902672063   -0.70366202395397
H           0.70078740455368   -1.57644960120482   -1.42147357678165
H           2.20554400417222   -2.28195900565799   -0.94427096257691
H           1.88227769614094   -0.62832185373710   -0.65250511987771
