    26
        -50.47229292  Gyration_radius:  2.48026632105 Dipole_moment: 1.992
 S           0.45605541397185    2.16861856195297    0.53224761720221
O           0.30866529786509    1.93851801145739    1.95625087140457
O           1.29934579167010    1.15604585742575   -0.09620493219285
O          -0.79978416221780    2.33226432268728   -0.17087888547528
O           1.22610916668473    3.54693699599738    0.39470911856156
H           1.83750384437749    3.49355635636769    1.12151088941095
O           0.69744912279604   -2.56101752177465   -0.64431873502751
H           1.11878120883201   -3.42065501685423   -0.63886121150202
O           1.03884847694304   -0.37362704582121   -2.29540712289057
H           1.34390319716199    0.23738276030390   -1.59706357052388
H           1.02640486292610   -1.25036076084407   -1.87082391758918
O          -0.99538371771293   -0.28265719600270    2.22451401828556
H          -1.58658044847647   -0.19157103845559    2.97345513733362
H          -0.54320971861973    0.59429115378630    2.12781031795927
O           1.53794576803040   -1.07866875065199    1.32722349458526
H           1.08416816249694   -2.05091262645140    0.12463752572687
H           1.58657792690308   -0.21964280556422    0.85791039941692
H           0.77030407546074   -0.99383055443128    1.90916708856017
O          -1.80664848797875   -1.58824274410266   -0.04280967807875
H          -1.73445440997015   -0.41960765161124   -1.12464788218312
H          -1.01241081257236   -2.10620045068042   -0.26664415425761
H          -1.60019398157195   -1.15152324794988    0.80525215687243
N          -1.42350612234573    0.36463582125275   -1.77137846080831
H          -1.23249320968104    1.21472345520806   -1.16952966737788
H          -2.11292395063224    0.56847776730961   -2.48517916739934
H          -0.48447328434763    0.07306633743785   -2.18094126000666
