    26
        -50.46272433  Gyration_radius:  2.4815563434 Dipole_moment: 6.104
 S           0.32333798225961    2.28566042474355   -0.37688686066266
O          -0.18723427553605    2.04045937360281    0.94943348269068
O           1.75285723463081    2.42863638270533   -0.48166388789237
O          -0.22318202569199    1.29412444211089   -1.32398705542227
O          -0.27783722939547    3.68222262782200   -0.85640623960423
H           0.47887275648772    4.06209662737918   -1.29067461481981
O           0.72720249891162   -1.52472077945976    1.65542314834731
H           1.31556768876361   -1.97214376827138    2.26511584283411
O          -0.56361076681115   -2.57945426767590   -0.44037823277682
H          -0.06555869448854   -2.26684314014298    0.35129482753663
H          -0.53366628543180   -3.53658296282205   -0.42995557430389
O           1.12302597555883   -0.93768714392975   -2.09784578389936
H           0.66667599342339   -0.08123859208122   -2.02340001045310
H           0.51808625336367   -1.59350446922761   -1.72693261567201
O           2.28199749910635   -0.09116119566611    0.19299699926134
H           2.11461232376139   -0.47034000632471   -0.69492406960015
H           2.18783960855791    0.87199132215331    0.06855534447767
H           1.31632024600406   -0.89144998487235    1.13569262176375
O          -1.40688488972938    0.09785900115504    2.22188521607377
H          -0.98897073408672    0.95393943835778    1.99145719724610
H          -1.90774360558693   -0.12404714553496    0.78592986884704
H          -0.65978568413960   -0.52694038945900    2.25376959221336
N          -2.01153001315457   -0.25800279415137   -0.28193635203267
H          -1.70143261770026   -1.21358841677461   -0.51259467085301
H          -1.32199519454961    0.43259220627354   -0.73268436971171
H          -2.95696401452667   -0.08187679990938   -0.60128381358726
