    26
        -50.47229255  Gyration_radius:  2.41199531578 Dipole_moment: 3.373
 S          -0.66612898471082   -1.61002684469567    0.05425466001940
O           0.69446893024336   -1.41347743404041    0.52792083048981
O          -1.60763408100139   -1.72673511175643    1.15418002374387
O          -1.06754316829639   -0.63059794602130   -0.93244398073870
O          -0.67919533629449   -3.00866587271242   -0.70281038037238
H          -0.65922246084330   -3.63276117469443    0.01524868015689
O           1.31328891886317    2.20147268329462   -0.20002889480854
H           1.90203626923367    2.90792607677508   -0.46774931669727
O           0.42122764566076   -1.25808042337080   -3.05164624788681
H           0.41497938405253   -2.21672559778280   -3.06542818444005
H          -0.23907640537084   -1.00047743429062   -2.38116263915438
O           1.12673602808752    0.72416880075031    2.11328498333272
H           1.33408981608800    1.37025445813852    1.41229013439911
H           1.15551050474510   -0.14245282486737    1.66397518837848
O           2.11074395675029   -0.03103191562839   -1.28327412207095
H           1.68530733501424   -0.31693427761200   -2.11112550446858
H           1.62416111604373    1.38410366352582   -0.68691593283876
H           1.72846761644520   -0.61643413387339   -0.60258955388575
O          -1.41021095058628    1.95351145624898   -0.30849474048810
H          -1.42447595422765    1.09332247512059   -0.76697773508809
H          -1.60610384541121    1.35057458036714    1.13529615093688
H          -0.47293244599861    2.22505931842970   -0.33494988371842
N          -1.48398067563171    0.75855762810294    2.01905698863702
H          -0.44384360496850    0.81341457450859    2.26025615323361
H          -1.67164445602187   -0.24525465269201    1.76001087624554
H          -2.07902516186670    1.06728993876467    2.77982245708183
