    26
        -50.47229326  Gyration_radius:  2.41211570077 Dipole_moment: 3.396
 S           0.46175502323216    1.53600731099686   -0.68180487202265
O          -0.63298563531792    2.09018248388533   -1.45938275791149
O           0.14211845745406    1.47978009042052    0.73545882801620
O           0.94355127551763    0.27451822690917   -1.20197804243838
O           1.67763380820956    2.55090088746467   -0.82788098352628
H           1.25287929224336    3.39746074903400   -0.73646289221931
O          -0.45948148860494   -2.16432661886733    1.31345280448488
H          -0.39771148581930   -2.93970250244523    1.87233594380587
O           3.32832609313498    0.01644512421021   -0.03988288064153
H           2.52649047302588    0.04892664153235   -0.59477201180804
H           3.69094976672625    0.90370563290405   -0.05858834163854
O          -2.05260658401614    0.07568860429759    1.43034341104320
H          -1.62333807111233   -0.79255923907721    1.54749215707917
H          -1.31195842318960    0.71006211313083    1.37911807335212
O          -0.64476185211341   -1.87490379152400   -1.40188991558900
H          -0.59222518073291   -2.17115113009664   -0.47327344288045
H          -1.76918993561977   -0.76970718590002   -1.40158638474958
H           0.09599529769784   -1.24826963200261   -1.49710118359645
O           1.48196563371523   -0.52886860352471    1.90460290219174
H           2.28899369006792   -0.55671094932623    1.36043256139834
H           1.02385711519463    0.28174072438220    1.61271094245811
H           0.33668617968332   -1.60004592992905    1.53573724689809
N          -2.34040356501294    0.10487915683367   -1.16629663197615
H          -2.43813057398205    0.10625785719931   -0.10162737018325
H          -3.23582132222668    0.12454777636960   -1.64168163901628
H          -1.75258797816821    0.94514219310023   -1.40747552053839
