    26
        -50.47229319  Gyration_radius:  2.41203784867 Dipole_moment: 3.394
 S          -1.53781243452042    0.04034924012519    0.81926530678959
O          -1.49694152127762   -0.46738154020373   -0.54255379622915
O          -1.61690079856151   -1.03462533215124    1.79306917709899
O          -0.47673659341435    0.98289164660156    1.10214492895634
O          -2.89016981090233    0.86743629144796    0.94930203844341
H          -3.54594152954579    0.18189390212345    1.02327182020185
O           2.07078522661870    0.06282154178448   -1.52556316235308
H           2.72743555647833    0.28102190911022   -2.18780031686024
O           0.50726305839458   -2.16813069714794   -1.14311908984048
H           1.16351490711706   -1.50473770460995   -1.42796446377734
H          -0.33501700365455   -1.67591973133120   -1.09883106848608
O          -1.14680315759154    3.10285747170321   -0.36739794269472
H          -0.85672246181204    2.43392187888157    0.28086426827840
H          -2.09947875344619    3.15584812003480   -0.27453953334202
O          -0.17260088528857    1.24620034095610   -2.12556707485448
H           1.25216607205762    0.58601126524869   -1.76601166530805
H          -0.75041123148278    0.60277556741679   -1.67354284403271
H          -0.37542434529752    2.09488299795298   -1.69341212433568
O           2.09506524377862    0.23523015139902    1.20605738698291
H           1.26385057852785    0.73720890962612    1.29257856082417
H           1.44359376735646   -1.17173686809741    1.49270906283109
H           2.27530669554403    0.23052989129201    0.24673580118110
N           0.79990588939398   -2.02627938875139    1.44923051681787
H           0.74120005062899   -2.28963074216481    0.41465693910463
H          -0.16685083370633   -1.71304115290568    1.72682017570643
H           1.12772431462373   -2.79039799832782    2.02959709890195
