    26
        -50.47229329  Gyration_radius:  2.41217329546 Dipole_moment: 3.397
 S          -1.15095706057745    0.77154511905729    1.05703081927139
O          -1.02815956289595    0.24269493033083    2.40445893704439
O           0.03117572078827    1.51991154844229    0.66168165318071
O          -1.53318250752472   -0.23260303568065    0.08764404903955
O          -2.35234122396823    1.81339371459770    1.08985268065258
H          -2.19798623532302    2.28088321062561    1.90412928556899
O           1.71996621478065   -0.79253438858634   -1.74162459681424
H           2.23369693440810   -0.93743976737282   -2.53689579868900
O          -2.38107082390195    1.22067093286563   -1.97931127350439
H          -2.19150122138523    0.59103735160926   -1.25869828529135
H          -2.86742255231435    1.93988792114138   -1.57264526507598
O           2.38395347207585    0.20479266090634    0.73554908608484
H           2.36830461591994   -0.14722939671967   -0.17415392068060
H           1.67288169896768    0.87396076455206    0.75150871234401
O           0.34863290909422    1.40892905389807   -2.00017236182220
H           1.16966692001772    0.02546814389906   -1.91401815255599
H          -0.57685137365842    1.34286043293521   -2.29550466553293
H           0.28206500192511    1.59955681127740   -1.04552471243874
O          -0.02487624987589   -2.39882059431976   -0.37561432248129
H           0.62690268065234   -1.98635183059552   -0.97390144955155
H           0.50435555105494   -2.06934572127678    1.07236752641948
H          -0.76289462225273   -1.76235787105600   -0.34794659708113
N           0.85386781982879   -1.54051566744227    1.93538823237052
H           1.16636920232550   -2.16230794042729    2.67287128842992
H           0.07504742103785   -0.91020349974010    2.26088785032803
H           1.63035729081379   -0.89588286291998    1.58264128078999
