    26
        -50.46272410  Gyration_radius:  2.48191585174 Dipole_moment: 6.102
 S          -0.03363961879111    2.28631842990679   -0.49573048585552
O           0.18231518678886    2.06259102370117    0.91258983098401
O           1.15320089677646    2.48697587280010   -1.28714020145100
O          -0.91816896053444    1.24120441970711   -1.04720637208070
O          -0.86614457131683    3.63880882751463   -0.63080216575016
H          -0.44055830428629    4.03387140151782   -1.38452559949547
O           1.52959277457758   -1.43596886151637    1.08987246534596
H           2.36427416356097   -1.83734541688625    1.33544430867437
O          -0.56232617995665   -2.61474122697458   -0.09522919539752
H           0.24170828839149   -2.25440496289397    0.34780198487677
H          -0.47772201599643   -3.56863034047310   -0.09614493046706
O          -0.00004946038849   -0.94723437773707   -2.37395843434212
H          -0.40791706403498   -0.11120518420705   -2.08753383470106
H          -0.30802521408271   -1.61929178996731   -1.75182153893727
O           2.08839901851801    0.01790036260260   -0.95507352748432
H           1.52681918304407   -0.39496171611767   -1.64382650587942
H           1.89070315854840    0.97138839828815   -1.01925832461829
H           1.75378442836516   -0.79436671206535    0.34362277102550
O          -0.13838658955229    0.10193790191956    2.62572127094688
H           0.06216441265006    0.96990505899996    2.21708423738374
H          -1.26682625185016   -0.18835039972691    1.62355948470512
H           0.56215049189329   -0.48478612460358    2.28708648371447
N          -1.87409351265481   -0.36053785790728    0.74568768560987
H          -2.86266690966393   -0.23923964456852    0.93224358163769
H          -1.66368342027708   -1.30719690391555    0.39619029360712
H          -1.53490393972867    0.34735981260273    0.01134669794834
