    26
        -50.47229326  Gyration_radius:  2.41215017331 Dipole_moment: 3.400
 S           1.22090078650875    0.42638867133914   -1.16793383786775
O           1.51103090172149    0.64042192578479    0.24065230266538
O           1.86956899989059   -0.77000543625212   -1.67590603145129
O          -0.19453291083046    0.47246142491579   -1.46561277077444
O           1.86241864984612    1.65381588096959   -1.94999421078016
H           2.78854615873955    1.43536110306302   -1.95299926381844
O          -1.70068221640319   -0.29711207650507    1.90746632112910
H          -2.34934889294100   -0.16367433441678    2.59942584310571
O          -0.80397603608850    3.04032406606471   -1.09272819128694
H          -0.68175139613396    2.10824509094854   -1.35361304458902
H          -0.05176778916408    3.51051576206262   -1.45621186009031
O           0.84160199709763   -1.34861694233612    1.93382039709070
H           1.25469167364812   -0.58448282500683    1.48768192222701
H          -0.06733638924024   -1.05449989341321    2.13160661009604
O          -1.88929408233017   -1.40865584326399   -0.58648587957789
H          -0.56307170449099   -2.25863195911444   -0.51895898441207
H          -2.00976104092882   -1.07068878245215    0.32133077181798
H          -1.49190738358850   -0.66167032391752   -1.07074742887167
O          -0.50872239425518    1.96630262512043    1.40679582898800
H          -1.31685497515393    0.60608517959806    1.71135019708335
H           0.31978794696410    1.57254231184080    1.07414121734633
H          -0.83375902709595    2.50370917617265    0.66270807217477
N           0.45259657711672   -2.55349424766393   -0.35171953558902
H           0.67737108243104   -2.25526767353484    0.65003235152200
H           1.06338165303570   -1.96496491962578   -0.97647664386230
H           0.60086981163548   -3.54440797038358   -0.50762417227142
