    26
        -50.47417150  Gyration_radius:  2.42101498977 Dipole_moment: 1.966
 S           1.98068135903784    0.12179678373769    0.26926333326780
O           1.33941097042665    1.17898130889471    1.02782927745591
O           1.79345336182813   -1.18323092907044    0.88474077944333
O           1.61220507919080    0.15182886219851   -1.13634511443669
O           3.54161023918535    0.38379730292077    0.30944868649598
H           3.79555659149414   -0.09594161080816    1.09006262533116
O          -0.53806562445630    1.17249066338668   -2.22723809034929
H          -0.32014669745047    1.45590176085704   -3.11624682263780
O          -0.05951442314651   -0.55720658133697    2.61362472343705
H           0.61533482690977   -0.97029433770679    2.02983306225185
H           0.26848002265328    0.34476856115636    2.70893177108526
O          -1.84754226067263   -1.11249502113089   -1.34991595692233
H          -1.06074328155962   -1.70525092533414   -1.35612817034326
H          -1.56158171103406   -0.32371295262609   -1.84124325487292
O           0.54297645779581   -2.29280086709025   -1.27969439915730
H           0.29940737504293    0.82054551683119   -1.84053213197691
H           1.01805581775748   -1.45518099909966   -1.42968378524048
H           0.84118843576389   -2.55981657366142   -0.40380334579330
O          -0.95809749159903    2.27673986401229    0.25427818686980
H          -1.77484928941500    1.01288038243133    0.74911598882554
H          -0.06394496872095    2.02944842786953    0.57432965486242
H          -0.92095931921357    2.14578552705528   -0.70748985686564
N          -2.08993171662985    0.02425697101944    0.99936384604648
H          -1.37446147009952   -0.34209774033404    1.68491271245165
H          -2.05849663833556   -0.53920935847745    0.09071696747364
H          -3.02002565502440    0.01801593450146    1.40186929300497
