    26
        -50.47417067  Gyration_radius:  2.42083215174 Dipole_moment: 1.987
 S           1.38965303208721    1.41916681677631   -0.25004156573342
O           1.56070779510865    0.76855328479962   -1.53998910838168
O           0.09068763523873    2.05346946543016   -0.12796740625035
O           1.68563181327923    0.54901302781693    0.87569188139559
O           2.48468577667393    2.56193234833634   -0.20717541442798
H           2.55175975885596    2.79754445127630   -1.12588492328320
O           0.00481680538738   -0.63893072919759    2.49384985593031
H           0.43046036272049   -0.74705763157297    3.34552587611869
O          -0.38080530416351   -2.47461687308479    0.44789674004383
H          -0.29752666882479   -2.03132927879705    1.30925904194662
H           0.50496279014292   -2.36975060755338    0.02964993097032
O          -0.91412026832101    0.84317310931479   -2.36583178141757
H           0.05013986778898    0.71964645592671   -2.21838447862959
H          -1.09771696286239    1.65929966955339   -1.88567245852352
O           1.99617034372733   -1.72168973827001   -0.49825218456845
H           0.65550217750330   -0.16499176777687    1.92226229751717
H           1.97552639684119   -1.29331994096346   -1.36049620160601
H           2.06144391484937   -0.97127273055172    0.12010235667893
O          -1.87663554038633    0.97259034819409    1.30265020100685
H          -1.19936216125331    1.51597278444802    0.84558749241651
H          -2.16779196328311   -0.09629802898048    0.16938613077092
H          -1.37889574808193    0.45922660522808    1.96004541696426
N          -2.08156417447400   -0.79739992948266   -0.63049826381926
H          -1.64822578879531   -0.26661201151195   -1.43469564428179
H          -2.98216339245140   -1.18354595249679   -0.88922738636691
H          -1.41734050727643   -1.56277315665576   -0.28779039438791
