    26
        -50.47416944  Gyration_radius:  2.42077372433 Dipole_moment: 2.023
 S           0.67977476703693    1.86422986284229   -0.26341570377313
O           0.52813526638928    1.52566865532607   -1.67004123760685
O          -0.59777357029089    1.92736458349644    0.42153658006037
O           1.63666746713743    1.01947910699275    0.43104180916770
O           1.30281192299376    3.31956877182218   -0.24419770365336
H           0.90840596465951    3.70824141395486   -1.01711197231451
O           1.16453917443766   -0.94886022791154    2.09190941239649
H           1.89733052845171   -1.00914827710317    2.70635766794710
O          -1.96742391120034    0.76304202975964   -1.64037384574748
H          -1.03354123778608    0.99956767897143   -1.83748069473797
H          -2.18973332748023    1.36550349131095   -0.92069485980621
O           0.59780804514942   -2.46800305372578   -0.16102324547726
H           0.86821333713767   -2.15917035735821    0.72038929598587
H           1.17503026317446   -1.96978083288301   -0.78482303592483
O          -1.42427346165122   -0.02519598425877    2.03026975666868
H          -1.17725707127635    0.79727076029811    1.55527816749902
H          -1.79012120016959   -0.94649296948702    0.79353352382609
H          -0.58061202515232   -0.39811057989060    2.33442809106755
O           2.07127421837979   -0.72776201529823   -1.54391513967763
H           1.36499347405930   -0.18246589461156    1.50279603414833
H           1.58973028178861   -0.21866437635998   -2.20445659857853
H           2.13778795040698   -0.10959402314029   -0.79351211583890
N          -1.81091774614818   -1.43548012084640   -0.15467924000245
H          -0.86675790232491   -1.92768821762593   -0.25905757069501
H          -1.90722776003097   -0.66748733569332   -0.87381414950421
H          -2.57686344762973   -2.09603209865260   -0.21894319528929
