    26
        -50.46272412  Gyration_radius:  2.48174851404 Dipole_moment: 6.098
 S          -0.41710518632305    2.29950873738394    0.10375377127071
O          -0.53508155521332    1.68846144798986    1.40481559572779
O           0.85772421076050    2.90124778632302   -0.19226590526522
O          -0.86225032449763    1.35846311373055   -0.94262967964428
O          -1.47068363438083    3.49470831444825    0.05298104036013
H          -0.96012105352324    4.16202153315538   -0.39339892248501
O           1.46980195860100   -1.46921192326160    1.12801093342873
H           2.27858949055279   -1.80321715830977    1.51840713102891
O           0.09151911323852   -2.51346325940210   -0.91665666472802
H           0.38656417453319   -3.39986928660926   -1.12694545027013
H           0.64597465663692   -2.19557944122615   -0.16561103567860
O           0.84511302980923   -0.16849056618362   -2.40752075585396
H           0.54386191376283   -1.03466459471214   -2.10325329688409
H           0.19727916426666    0.47387425717377   -2.06837844574296
O           2.20320113067092    0.60511814585206   -0.20199620724438
H           1.95449525467101    0.34669934937644   -1.11390761524463
H           1.81949151165606    1.49501680275447   -0.08775204038439
H           1.73073519688294   -0.60486315578319    0.67716917511619
O          -0.85005306995981   -0.72529364279686    2.38173029966176
H          -0.74932528418983    0.24509182698134    2.28696489166303
H          -1.57523685617302   -0.85227707406482    1.03281449507720
H           0.02919958490243   -1.07622690696835    2.15069168411192
N          -1.87187535666971   -0.83206662988046   -0.00678065862388
H          -1.36725766327896   -1.58714836307911   -0.49441860449811
H          -1.51931119574465    0.10666840843896   -0.39393038146741
H          -2.87524920099112   -0.91450772133049   -0.12189336343102
