    26
        -50.46547046  Gyration_radius:  2.52305662015 Dipole_moment: 4.988
 S          -0.42885082372554    0.01971153599336   -0.77174198497098
O          -0.59569217954119   -1.14115916617346   -1.60842702326164
O           0.09834826435664    1.19316850349669   -1.44163869778608
O          -1.66577950128332    0.36911453067061   -0.04004072803142
O           0.63076546511356   -0.31404734715452    0.33439904706860
O           0.58426920909867   -3.49611026083343   -1.24027443179626
H           0.12531869250840   -2.66790737312859   -1.49355593886520
H           1.40514418794578   -3.50921675917445   -1.73357018743599
O          -2.46698884839180   -2.15386457024108    0.30717092469986
H          -2.33573378599834   -1.19116934644481    0.22370308480568
H          -2.35973870386221   -2.49595065643241   -0.58505011285070
O           2.27293042728293    2.46534603416546   -0.67839751105264
H           3.04317437749168    2.11309022114697   -1.12565819044990
H           1.50063555312128    1.97378861540670   -1.04172954293300
O           1.37008642639550    1.91430170722506    1.76613010360279
H           1.24177017631274    0.97203243218194    1.56896210391845
H           1.94034058487569    2.23217521314705    1.03351885306402
H           0.02914474919066    2.46626094907059    1.21945228297485
O          -0.00454414138829   -2.57588338738216    1.22098402451621
H           0.39717105664410   -1.23911285117227    0.74349773883030
H          -0.98173657017878   -2.54406413297890    1.09101510935148
H           0.32046395485542   -3.14161232778171    0.49258969909679
N          -0.83767083625546    2.68166882625671    0.61127835948606
H          -0.50280638546084    2.99451785997593   -0.30148816427368
H          -1.46682742550200    3.35286830184101    1.04028279606359
H          -1.31319391360236    1.72205345831625    0.40858838622747
