    26
        -50.47417150  Gyration_radius:  2.42092324126 Dipole_moment: 1.968
 S           0.52595810260548    1.91625479212970   -0.24304727732112
O           0.44009396626079    1.57110545601577   -1.65386648146969
O          -0.76831163266758    1.86589453057644    0.40993705781106
O           1.53433115535308    1.15402076480388    0.47426150135378
O           1.02040601728129    3.41998595028841   -0.20929971531279
H           0.65813266495933    3.75790717466922   -1.02081288610250
O           1.18482039109054   -0.85126106997024    2.12122765608661
H           1.90220551619304   -0.84900717035219    2.75647163021420
O           0.80576919777482   -2.40837511601074   -0.14610421280674
H           1.02675500724251   -2.08080216740393    0.74217357980571
H           1.35503981372444   -1.86147605855333   -0.75416765471210
O          -1.98300403762023    0.60039808801997   -1.68993446601766
H          -2.27662682982427    1.18112905005643   -0.97811731733123
H          -1.06767322125518    0.91625970117341   -1.86092976287342
O           2.16268817757257   -0.54612046493410   -1.48869676413399
H           2.15748931686714    0.07317589398781   -0.73622056919748
H           1.33543656227203   -0.06937749296721    1.53751641231995
H           1.65646891223099   -0.07794437475447   -2.16099090157040
O          -1.47026310054289   -0.15296315765867    1.99551420032894
H          -1.28186617319016    0.68919417377948    1.52825260470433
H          -1.72531421530155   -1.09555244044486    0.74815002571181
H          -0.60548782683485   -0.45432128536975    2.31946313153654
N          -1.68085239746403   -1.58122501336542   -0.20123621484554
H          -2.38698101508425   -2.30321328221510   -0.28623928744733
H          -0.69665168391979   -1.99224489683744   -0.28178597784639
H          -1.82256264720738   -0.82144158480516   -0.92151830078996
