    26
        -50.47417041  Gyration_radius:  2.42087528602 Dipole_moment: 1.991
 S          -0.97902243999914   -1.73022598982971   -0.23815403117161
O          -0.70264117737755   -1.16698336530557   -1.54632205908535
O           0.21561741773701   -2.28242398709771    0.38193692653302
O          -1.69554785301783   -0.80236746927804    0.62073792610100
O          -1.95291472070121   -2.96127368806381   -0.44482572929570
H          -1.33682267935205   -3.67056433878796   -0.59100381050135
O          -1.76173531271279    1.81207398034299    0.49336162365768
H          -2.60351836852188    2.11079946831716    0.84019246233743
O           0.74078316922929    1.74984192381281    1.69208449011848
H          -0.15319859900312    1.99092502918521    1.39519568893342
H           0.62103519681074    0.89410043978979    2.16525787156035
O           2.01072410927114   -1.26969427659580   -1.21950612541171
H           1.40791463910470   -1.27796259423755   -1.97242189705140
H           1.48691038699254   -1.72138858778240   -0.52065221532228
O          -0.52555539045132    1.45965994492066   -1.93705669393874
H          -0.67860787630186    0.49031879983818   -1.93542395328631
H          -1.09486216797489    1.80114581903321   -1.22810832546611
H           0.91629425978191    1.50135278087902   -1.28048206189286
O           0.10277318724706   -0.67774229103197    2.59321952393611
H           0.64370396949433   -1.39681786990910    2.25011288898167
H          -1.78537754938295    0.82590012709708    0.53204463619461
H          -0.70186441734631   -0.72528731454273    2.04553127942982
N           1.77755976672123    1.32196598583519   -0.67649108657088
H           1.47641726600366    1.49769360764270    0.33494862817849
H           2.55031959095926    1.92336315618726   -0.93785280094148
H           2.02161559258155    0.30359070962497   -0.81632318601300
