    26
        -50.47399122  Gyration_radius:  2.38941638338 Dipole_moment: 4.401
 S          -1.22787042639079   -0.74244737829495    0.05161257813291
O          -1.94377771423450   -0.57322244912436   -1.18121962404356
O          -0.04853036571397   -1.61491455713191   -0.11986145837677
O          -0.79651622839849    0.54010393448549    0.62969009028008
O          -2.15268180095680   -1.42804801704426    1.08651439244419
O           1.60560908834600   -1.50846686564899    1.88398584295883
H           1.96464757316227   -2.37825862585607    2.06500458337395
H           0.98981074389290   -1.61362916121615    1.11441659573570
O          -1.33148511804138    2.63856434920689   -0.95556011441221
H          -1.15480318546385    1.92261897746056   -0.31335504158339
H          -2.28239083569096    2.76041148777098   -0.95930594167261
O           1.85670084848782    0.99900408043479    0.60854059739234
H           2.12008804318939    0.27963317902862    1.19900434724499
H           0.88391330119816    1.04046780178047    0.69349424242907
O          -0.59356065284678    0.95378067772430   -2.89254389414660
H          -0.77332517763919    1.77854251479439   -2.39220936729872
H           0.70020788238624    0.37665135919327   -2.30721871688978
H          -1.22064479903635    0.31601694633907   -2.49270072552697
O          -0.68825584437279   -0.58689355587093    3.06335766321372
H           0.20178081168690   -0.95632078665316    2.91768148716262
H          -0.70820870116185    0.22694634832922    2.53968253435236
H          -1.70733661689247   -1.25102369913097    1.95478798940092
N           1.43453347418743   -0.16347954782852   -1.72394209044195
H           1.80414025817972    0.44242452108550   -0.94089777866780
H           2.17522917301226   -0.54188190531675   -2.30391824877028
H           0.89272627909023   -0.91657965852068   -1.22503994228794
