    26
        -50.47417169  Gyration_radius:  2.42096467065 Dipole_moment: 1.966
 S          -0.40934599128077    0.34371534122521    1.92930620539663
O          -1.42589098460211   -0.67326320424419    1.70730159148587
O           0.93310142537643   -0.19555127927756    1.82395704494176
O          -0.59263827878922    1.52791512943323    1.10675184305281
O          -0.61600453318863    0.82314989624640    3.42412028606934
H          -0.96292169278205    0.03650714019962    3.83019365266560
O           0.74189546642379    2.23926253245386   -1.03064065673137
H           0.74183017102924    3.19601954055474   -1.08259391479752
O           0.09368415574807   -2.56556260733347    0.74532164730064
H          -0.62080976279311   -1.97531541216913    1.07371832054080
H           0.85621581624640   -2.28203673701977    1.26332906407977
O          -0.79573874727126    0.36752027045417   -2.38790579973539
H          -1.57907208115137    0.40752361449639   -1.79180927914245
H          -0.25971399936814    1.13903491637096   -2.13760496780909
O           2.45433263145221    0.21024042875186   -0.32194477348130
H           1.63374246519702   -0.85965669188253   -1.15371532598828
H           2.10245735792381    1.05379141797648   -0.65097749709349
H           2.03435607930757    0.09086431613421    0.55688472841444
O          -2.57993901486926    0.60092799457730   -0.41963492042420
H          -1.97655318755412    1.13044105810336    0.13298248216538
H           0.25576568074238    2.01125364262710   -0.20216299022602
H          -2.71536092264413   -0.19511946802522    0.10512347202812
N           0.86538231704979   -1.48167529885143   -1.55601134694467
H           0.12650494546075   -0.82216445558471   -1.95986978502823
H           0.47045032914935   -2.01961529844893   -0.73692070259094
H           1.22427035522534   -2.10820679673389   -2.26719838763414
