    26
        -50.46272417  Gyration_radius:  2.48194425004 Dipole_moment: 6.105
 S          -2.14399003866953   -0.27604929354013    0.89543986449549
O          -2.85729913602451    0.89606443128659    0.45681443546071
O          -1.87397926478019   -1.26323124258276   -0.12057702513906
O          -0.90568151902139    0.05059454937377    1.62967065199553
O          -3.08944029763928   -0.96705756877551    1.97685054035232
H          -3.68674796330033   -0.25263511818699    2.17213691872536
O           0.85819835321796    0.26966097178992   -2.18703100623747
H           0.93783312399641    0.59212977586597   -3.08578309773861
O           0.62837658064400    2.22808689193250    1.08397995356809
H           1.42663676793522    1.76172289367837    0.80308033766555
H           0.04130171186685    1.54950997604357    1.46105531431655
O           2.60902723625721    0.56689449544483   -0.18255516634832
H           2.02054196967115    0.49000437061566   -0.97009014106123
H           3.45465555504381    0.88962251691026   -0.49530577244686
O          -0.90063240532119    1.79999978960437   -1.10381424138441
H          -1.71097310757342    1.47838482267828   -0.66539194406315
H          -0.38005598194104    2.21237263348840   -0.38331860422296
H           0.10657770430630    0.80554633649453   -1.77896350630337
O           0.22906204921672   -2.25700840212791   -1.33413235012988
H           0.47051875372194   -1.46526823291097   -1.84840580472957
H           0.81762232334674   -1.89881698227728    0.04001454296111
H          -0.68777690477207   -2.07638824400067   -1.03867605827988
N           1.11385886605921   -1.42297849890568    0.96447322863454
H           1.87023268681888   -0.75667006810123    0.74898407231777
H           1.39365796060510   -2.09447653898409    1.66990455369976
H           0.25847498633619   -0.86001424481401    1.29164031389252
