    26
        -50.47417169  Gyration_radius:  2.4210025605 Dipole_moment: 1.965
 S           1.43326869371618   -0.70003847506529   -1.21038419246228
O           2.05667736882178   -0.04005801997274   -0.07905992659711
O           0.86089443593935   -1.98685299542695   -0.84521947658138
O           0.49785264942686    0.16773175700048   -1.90644759946397
O           2.57307320502930   -1.03099404513019   -2.25836528369100
H           2.84586991747844   -1.89689471004764   -1.97594209402319
O          -0.78451653550457    2.25078017168594   -0.97244475729053
H          -0.93792620458657    2.86057318949633   -1.69543110571254
O           0.98082824963777   -1.76339731979318    1.75299661668518
H           1.76801767824296   -1.20738116729360    1.71538983478669
H           0.85047545097690   -2.01493575695960    0.81144241356659
O          -2.49744502819985    0.42626230177675    0.23038802873362
H          -2.36693530116660   -0.30109958252681   -0.42110080882062
H          -2.10673555383613    1.20780851766397   -0.19591268321432
O          -1.68718714053404   -1.33844360691970   -1.59752367614923
H          -1.20906810381575   -2.09811426370440   -1.24866340921503
H          -0.27783419143001    1.49521498527110   -1.35597133513211
H          -0.97444590667017   -0.75605960293939   -1.91779008012804
O           0.89242013512405    1.98972319795936    1.18907032168655
H           0.34099612495513    2.36708133752146    0.48399884698199
H          -0.10684799631172    1.00665257508710    1.92721172893983
H           1.46253991090485    1.33271088266554    0.73488091865294
N          -0.75931387534760    0.20052241820192    2.17941612527882
H          -1.54337443923338    0.21073966276027    1.45199420946809
H          -1.12962453237587    0.29755315451173    3.11780577580546
H          -0.18165902121145   -0.67908457563657    2.08566160790301
