    26
        -50.47417075  Gyration_radius:  2.42088044552 Dipole_moment: 1.980
 S          -0.57195517318322   -1.79467434409795    0.67887665308961
O           0.72257770036749   -1.92903813112213    0.03780893416255
O          -0.47535492132143   -1.13472008737697    1.97190221331685
O          -1.56181194088779   -1.19428915280763   -0.19967780999629
O          -1.10400344593822   -3.25295204272544    0.99032952727501
H          -0.73337382068916   -3.41199460976014    1.85134163502900
O          -1.16813431779331    0.36602873028586   -2.26504889836006
H          -1.88844543540384    0.23667640816101   -2.88360586518149
O          -0.74741811076433    2.39551267277167   -0.41895813603711
H          -1.30819459312481    2.01811815651318    0.29768525502960
H          -0.97771573161900    1.87552700357381   -1.20761792930856
O           1.96978142138068   -0.23958567258293    1.79028813594622
H           1.04758364321127   -0.48437520437963    2.02774822446882
H           2.24564633512448   -0.97580982129671    1.23156024761700
O           1.46965851179956   -0.34984960152144   -1.96998162649752
H           1.26149928107045   -1.05573869667859   -1.32080136359405
H           0.61239554747388   -0.11130852566598   -2.35931899215562
H           1.74946875384441    0.85106401591944   -0.97444594400479
O          -2.14545219277674    0.92851894002001    1.31470307086782
H          -1.33616278048155   -0.25594263498057   -1.51699220001052
H          -2.15672613117475    0.15174168985747    0.72635175174270
H          -1.65026331492830    0.61663328821961    2.07947269782096
N           1.71813925216243    1.54460864525020   -0.16403104389780
H           2.44160036709510    2.24959924324138   -0.24600150804202
H           1.84261669079069    0.96963566343125    0.71354351798032
H           0.74404441601169    1.98661405753923   -0.18513056702839
