    26
        -50.47417029  Gyration_radius:  2.42092189717 Dipole_moment: 2.003
 S          -1.71648019093151   -1.02525822270030   -0.09845910439655
O          -2.02041614792675    0.37053210670319    0.15479167451713
O          -1.29062475818407   -1.25055781610844   -1.47122573232009
O          -0.80001889536603   -1.57702475998353    0.88519023806177
O          -3.06198402775150   -1.84368451901532    0.06425785215139
H          -3.42531152801862   -1.79118063629014   -0.81278653476940
O           0.93442621500446   -0.30644998564098    2.37990505186251
H           1.04835424795378   -0.79700477541739    3.19507343304781
O          -0.90848205061894    1.22833609266266   -2.19404493220897
H          -0.98936282165807    0.25315383238367   -2.09664166931479
H          -1.59524096727014    1.55702166692520   -1.60202107045026
O           2.53383729118775   -0.20200756893335    0.11217597741447
H           2.17830542657458   -1.01437603571565   -0.31699802905447
H           2.19814087729399   -0.24152466063771    1.02371658573442
O           1.14765976359495   -2.28976461392031   -0.79972288606461
H           0.25709255252509   -0.79927914625297    1.85753462584715
H           0.48717379307069   -2.22844382482533   -0.08583598060752
H           0.62874160681101   -2.11987037928675   -1.59300344853309
O          -0.34884214382235    1.95459335977070    1.48838165517324
H           0.11825553726193    1.31458924165101    2.05031095413739
H           0.60465587781374    2.07728157189500    0.22921373388539
H          -1.08492971604693    1.44406491768757    1.08754793001589
N           1.16050962532767    1.89189200254436   -0.66284153601848
H           1.70397165395870    2.70086348298410   -0.94093381524775
H           0.44743188063503    1.63876861466791   -1.40018773920775
H           1.79313691838583    1.05533009460682   -0.45339725360629
