    26
        -50.47417108  Gyration_radius:  2.42090511399 Dipole_moment: 1.972
 S          -1.95887041260478    0.11637965367455    0.39806953085713
O          -1.67827528697082    0.88506066724909   -0.79981948849401
O          -1.91052212801307   -1.31666222343666    0.15171376594073
O          -1.13994229168124    0.53333060096824    1.52399507011606
O          -3.45452389096827    0.41940554248563    0.82027696833737
H          -3.92903343219272   -0.24562723698049    0.33386615291844
O           1.18332817407007    1.74012536168112    1.48315013851286
H           1.26086577131040    2.27373097747567    2.27523710391951
O           2.25931356571744   -0.75025018745629    0.89651269942458
H           1.55932608561428   -1.28552419853064    1.33691349158258
H           2.10666355778983    0.15683208092246    1.21160146149286
O          -0.78973158382543   -1.28530622019279   -2.20560118367241
H          -1.18505784613525   -0.43477895158993   -2.43057645293517
H          -1.20106208501538   -1.48942166338971   -1.33618335670302
O           0.67192312179215    2.06905854699622   -1.19775201191659
H          -0.26033632342629    1.77530588984673   -1.11048271947334
H           0.96931093422853    2.22146001638689   -0.28574966439301
H           1.35217611025978    0.68478454274026   -1.56236617452397
O           0.06383660182316   -1.80806695853101    1.97958454136150
H           0.28832550493171    1.32509858690991    1.52062756069073
H          -0.38418358136596   -0.94459108917423    2.03904307368092
H          -0.49526960462268   -2.30330945440301    1.37177620924106
N           1.62540866730185   -0.34546851539906   -1.61401292635864
H           1.93687093308241   -0.62270826852649   -0.62881326337850
H           2.36424426901560   -0.50382397845771   -2.28940650935714
H           0.74521518015731   -0.86503351114752   -1.88160402730732
