    26
        -50.47417039  Gyration_radius:  2.42085645296 Dipole_moment: 1.995
 S          -1.19040551017209   -0.96014417363664    1.29187935871022
O          -1.81087017645898    0.30157772301730    0.93435047213968
O          -1.27176903781908   -1.93349875131870    0.21371756029884
O           0.15711271677806   -0.78494032951204    1.80709069924411
O          -2.02662611437575   -1.58194116504999    2.48402973568183
H          -2.69324395235651   -2.07188668952242    2.01540233203780
O           1.81448366594018    1.19649642040584    1.38033015472548
H           2.38506479941329    1.28352648866759    2.14521156209347
O          -2.02072622967686   -0.34241448593958   -1.71518648888802
H          -1.73681247965739   -1.07705957849471   -1.12654876100467
H          -2.49258850587787    0.24165060156198   -1.10975487138231
O           2.30176497215151    0.01490577977576   -1.08350050402648
H           2.36965973142293    0.50543975334453   -0.24674516779400
H           2.09499803447410   -0.90909037222454   -0.81169638792720
O           1.43291339464000   -2.26809704179594   -0.01301618735104
H           1.18901165416860    0.46174358466325    1.58915019696951
H           1.11247326506152   -1.82666576035867    0.79456412929268
H           0.62689926691463   -2.62214384163874   -0.40329960502093
O          -0.37137442031970    2.43928038279566    0.26925381108688
H           0.45493376974876    2.27538680688262    0.75276237825002
H          -0.06485047087606    1.83719470981340   -1.16439916422382
H          -0.99501350483522    1.75906086931318    0.60298115204732
N           0.13730510214420    1.18579507825633   -1.98512787359214
H           1.03702469238174    0.66255343064033   -1.73796614106544
H           0.23880646711132    1.69780900106345   -2.85383407935473
H          -0.67817113002542    0.51546157945168   -2.02964831108293
