    26
        -50.47416966  Gyration_radius:  2.42082404934 Dipole_moment: 2.014
 S           1.26963960341404    1.52575874584195    0.26051665877051
O           2.03606733689252    0.82352130745858   -0.75726550718948
O           0.01956860264057    2.04518497803052   -0.26166284678244
O           1.08015553293845    0.74980360607936    1.47449329328500
O           2.16173536969982    2.76432937326071    0.68059931801881
H           2.59879678791960    2.97293870144066   -0.13762126101193
O          -1.07192047097581   -0.50027294314297    2.28736419578919
H          -1.06567116122055   -0.52249622303601    3.24530382189902
O          -0.39375287100618   -2.47239348493289    0.45554029431372
H           0.57764877021468   -2.30810793154316    0.46298563835044
H          -0.73030996652670   -1.97728594099729    1.22169554118064
O           0.19081973461294    0.62251961354306   -2.59225647532038
H          -0.23521523072281    1.44338753897409   -2.31846475112849
H           0.99324803368337    0.59741230145119   -2.02447719671806
O           2.10626304902030   -1.55420684678285    0.59088571301849
H           1.84413370831270   -0.76821501349997    1.10380884413422
H          -0.26379544548939    0.00028210037727    2.02088580208386
H           2.44861595425891   -1.17759815280414   -0.22670550899656
O          -2.31099794648433    0.86555083651293    0.24842327061170
H          -2.13079268272122    0.43756657843517    1.10150550205059
H          -1.53365370960204    1.44297276606772    0.08925733617430
H          -2.00383408008627   -0.28741366356147   -0.79433270054007
N          -1.52989440907562   -1.02110591600626   -1.40748033620718
H          -1.04468925977984   -1.70194280898788   -0.73989283456405
H          -0.81521999166570   -0.49799337648112   -1.98342007764991
H          -2.19694525824087   -1.50219614552502   -1.99968574360175
