    26
        -50.46983306  Gyration_radius:  2.43236534031 Dipole_moment: 4.339
 S           1.98482415344557    0.44323562086592   -0.31199104346491
O           1.87420630855678   -0.39668329373758    0.85323462955747
O           1.89796914427221   -0.24987548010907   -1.57960321784254
O           1.03654610748936    1.56817368205448   -0.25903809581762
O           3.42706999413736    1.09679782941602   -0.27067013819931
H           3.58233258540798    1.29168100538420   -1.18884943301054
O          -1.30975068779757   -1.62100057248118   -0.19069006577218
H          -0.56307756898228   -2.22721809423092   -0.37658714435158
O          -2.93453607040850    0.93531936983643   -0.22611651255958
H          -3.07921508049904   -0.00088610246870   -0.05098752593335
H          -2.39958929418491    0.96378260200427   -1.03460225810739
O           1.13117386487344   -2.65325185310576   -0.66284076998048
H           1.56792430331542   -2.60910007102565    0.19214275345780
H           1.44941551201117   -1.86172789780052   -1.13580306254610
O          -0.75941471862204    0.51549150024548   -1.87571549873625
H          -0.25563494714253    0.07536408406233   -2.56573530630917
H          -1.17135058810609   -0.89088444346766   -0.81977580788067
H          -0.08117772859466    0.98336995027657   -1.34315988629125
O          -0.38441523475525   -0.86160853775015    2.19734157470230
H           0.54530540319353   -0.80090486375425    1.90108411043567
H          -0.77816799148270    0.58812315226236    1.95071885555787
H          -0.84489617647534   -1.29073241110361    1.43835537097493
N          -0.95443511066622    1.55021583527132    1.48072234375459
H          -1.03984210557727    2.30553012962285    2.15054244148999
H          -1.81376552035018    1.45497447150869    0.88281407517478
H          -0.12749853308044    1.69181436821639    0.84520960170819
