    26
        -50.46999297  Gyration_radius:  2.46228285897 Dipole_moment: 3.137
 S           1.83471970441577   -0.75896779487662   -0.97989284425385
O           1.23665265993697   -1.36285638759271    0.22553591845609
O           1.33126319677408   -1.34734152435180   -2.19726034826608
O           1.76915812530900    0.67800095550522   -0.91107557461574
O           3.37246021521106   -1.17213364353464   -0.92132170626847
H           3.44594581151878   -1.70390014216712   -1.70666139852734
O          -1.70474220709891    1.82302833597234   -0.43234420684777
H          -2.31713319899538    2.35586258585173   -0.94093118933353
O          -1.26620990176152   -2.12964635356911    0.03377221514153
H          -1.31718236557571   -3.08013260556170   -0.07254498525686
H          -0.30560575490933   -1.90806609715757    0.09896624487920
O          -2.08376057901015    0.00238246161475    1.59577443430509
H          -2.00836318105533   -0.82754153299279    1.09626939074526
H          -2.14522683380129    0.70703433482639    0.92444752326814
O          -1.06975644624058   -0.21678796423494   -1.95207317191489
H          -0.16678073408153   -0.49034930137930   -2.19610386243218
H          -1.40508372741353   -0.94826747379499   -1.41037614708363
H          -1.38401342258300    1.11357077174466   -1.05074839723901
O           0.72219330250235    2.57940420361192    0.60306735758464
H           0.64636349089901    1.37110543123297    1.59025983774719
H           1.25919471455016    2.08654810616768   -0.04829425225742
H          -0.17908801548319    2.55172450893424    0.23353973020495
N           0.48923657589153    0.40736202979060    2.03596129516221
H           0.90240102675548    0.33657375681691    2.95820058712810
H           0.90193273679413   -0.30275896129118    1.37479330122644
H          -0.55857520251809    0.23615232048090    2.04904023849314
