    26
        -50.46983300  Gyration_radius:  2.43255534042 Dipole_moment: 4.332
 S           1.47411258383927    1.31976128846671    0.56589307085649
O           1.05710398689846    2.18683318156863   -0.51537046519074
O           0.52812736558795    1.18931435592185    1.64455757979433
O           1.89653329606460    0.00492612062923    0.05572280222214
O           2.77759286926139    1.98098145340501    1.17634558511958
H           3.16824470772005    2.38996325548957    0.41121386474000
O          -2.01399484039414    0.02293063916462   -0.56989842768548
H          -2.09100578813841    0.96930504005444   -0.32904698853801
O          -1.49791585399315    2.54198811200341    0.22713008098047
H          -1.36787458093827    2.45987788997428    1.17581398206261
H          -0.59395865513776    2.54632454428773   -0.13932592599411
O          -0.74394807157796   -2.51628533362639   -1.62980958697085
H          -0.30605189254251   -1.79482338777499   -2.10767930454657
H          -1.62828391115119   -2.18930934993390   -1.43217439354630
O           0.32689518213382   -0.00726056791484   -2.06157965711580
H          -1.23185569842373   -0.00062780754616   -1.14929620293589
H           0.33975534533039    0.89406958831556   -2.39484060330421
H           0.99069121208388   -0.00675051155662   -1.33915247489060
O          -1.27500172987980   -0.76539348894719    1.87311888814380
H          -0.23917166599956   -1.72810128507876    1.30916661126673
H          -0.68271190927093   -0.00185757868411    2.02167320783686
H          -1.75460819801857   -0.53228823687967    1.04375001817854
N           0.54298685790742   -2.17232052545543    0.70219305124638
H           0.10387372567113   -2.47686711443901   -0.20302282541428
H           1.01781047720587   -2.93569209120026    1.16937381043119
H           1.20265518578744   -1.37869820027194    0.49524429323948
