    26
        -50.46999303  Gyration_radius:  2.46221822667 Dipole_moment: 3.138
 S           1.39974100602344    1.48225593076042   -0.86350736187519
O           2.69114540081136    0.88452545908412   -0.62545926447836
O           0.51933722883326    0.61638768044302   -1.67009207727214
O           0.70861813540553    1.95475336199378    0.30827792168500
O           1.68891648609935    2.74472026192905   -1.79143556786320
H           2.63013989446307    2.67057400918699   -1.90805665224774
O          -0.58292143961691   -0.86168804992104    2.30947294982858
H          -0.42322714112257   -1.19173374843868    3.19442794758721
O          -1.64949813045073   -2.04048471237932    0.06357306177066
H          -0.83487531879728   -2.24558147667117   -0.42459326615434
H          -1.36045127201811   -1.78479642128996    0.95915391819963
O           0.75851604235658   -1.97044695551695   -1.29631349006351
H           1.25945522328920   -2.36620494904024   -2.01038237855996
H           0.70572897708953   -1.00424848082563   -1.49575387500899
O           1.72816173860196   -0.92892443552435    1.07353096931344
H           0.31184151777392   -0.78619238743681    1.88248416516601
H           1.52471776686512   -1.55200636176448    0.35846845038597
H           2.16056909761041   -0.17911121920120    0.62569809934772
O          -1.58104704382077    1.59019465923386    1.58428270941813
H          -0.72773487401070    1.94896688421407    1.27007869504945
H          -1.94899112191596    0.99621577373707    0.18705090207670
H          -1.33352183716995    0.77335367845163    2.05457806754737
N          -1.94707110073001    0.45774644889591   -0.74145563453009
H          -1.99530401549065   -0.57590883016724   -0.50344935212216
H          -1.00401513555322    0.62093958704020   -1.18387054031665
H          -2.69823008454673    0.74669429317235   -1.35670838688811
