    26
        -50.46272414  Gyration_radius:  2.48203224057 Dipole_moment: 6.101
 S           0.18673337580058    2.22615126354885   -0.69619215779654
O           0.36794963024996    2.11143856208735    0.72986727263310
O           1.39387006974952    2.24311681223923   -1.48209474230427
O          -0.78735130566998    1.22226033536018   -1.16785698803831
O          -0.51368811573631    3.63246570308156   -0.96532465926457
H          -0.05067909764852    3.91426072615621   -1.74730606978914
O           1.37883925893371   -1.46846295525319    1.23866926687859
H           2.17013386105709   -1.92172773700461    1.53276462601346
O          -0.80513603769229   -2.54903603603164    0.12777286658441
H           0.02543254726295   -2.22695199445542    0.55074561527796
H          -0.80988672989836   -3.50303665575600    0.21091056987482
O          -0.07070449363275   -1.15293994192264   -2.28038978864133
H          -0.39984090770768   -0.26009023373383   -2.07598097587370
H          -0.44526150177119   -1.73442738899728   -1.60571555795852
O           2.08801255400129   -0.26297711970006   -0.91818220325533
H           1.49570632596908   -0.68184983316868   -1.57686666300375
H           1.98181804075917    0.69519235959704   -1.06993001326512
H           1.66819766842618   -0.92044533184652    0.44198502902968
O          -0.14976007994564    0.34995910969736    2.60400869900060
H          -1.29215317778566    0.07716139853452    1.61250395580010
H           0.49536467688657   -0.32726416927518    2.33050532786299
H           0.13485613735772    1.15550520871975    2.12378767827438
N          -1.90544265604739   -0.11562576194585    0.74324171912849
H          -2.87963941835155    0.11390221287530    0.90159459276027
H          -1.78278584192610   -1.10533064675619    0.48268603047864
H          -1.49458480264049    0.48875210394960   -0.04520344040712
