    26
        -50.47000529  Gyration_radius:  2.46320254619 Dipole_moment: 2.739
 S          -1.14526575948598    1.88994810070426    0.15528668770462
O          -2.41239659512791    1.54966351982648   -0.44416064651049
O          -0.89815162281980    1.27629949033864    1.43735689406912
O          -0.00449094361140    1.68373062995061   -0.75090825848777
O          -1.19047962297652    3.46716051507989    0.37804221185775
H          -2.12840034718830    3.62555012305183    0.37581439654972
O          -0.12058201364526   -2.32508598521785    0.97741796468488
H          -0.52878841097088   -3.14493689477714    1.25819691582639
O           1.67513753681600   -1.74991093749379   -1.02610138850861
H           1.10141052641442   -2.15121408539783   -0.34725323480341
H           1.07177610250078   -1.39184343485354   -1.69831933356947
O          -0.17997713845408   -0.29284989102789   -2.47308052360700
H          -0.13193652124252    0.49586295067268   -1.88115444927201
H          -0.39305217246937    0.03821439827493   -3.34634386819946
O          -1.91289269688860   -1.06311840240902   -0.45796967626317
H          -2.22776846590460   -0.15221225433789   -0.30957041375919
H          -1.46021657991379   -1.02569738644370   -1.31481099660995
H          -0.83784243303148   -1.80514277637258    0.52544994345779
O           0.88857941924442   -0.32028533496985    2.55657525813070
H           1.72866641065687    0.17947925167088    1.34075166621462
H           0.15942923361461    0.31010672353613    2.38847065197437
H           0.55749450604271   -1.16401833108005    2.19863115659875
N           2.05764230425426    0.46583115603488    0.35939722007827
H           1.29436690556911    1.06753474838096   -0.04823878837008
H           2.09279554231343   -0.41734264196830   -0.22913373093021
H           2.94494283625022    0.95427675886162    0.37565433177181
