    26
        -50.46999198  Gyration_radius:  2.46212560371 Dipole_moment: 3.173
 S           2.11551780126071   -0.09057025561175    0.64693045051135
O           1.58899519468814   -0.78879674402172   -0.54107962396437
O           2.60726220338130    1.22942509799881    0.33497961460211
O           1.17427819524850   -0.16282612927618    1.73426792051929
O           3.40383927589407   -0.92635297524821    1.07192176273890
H           4.08981558833240   -0.28244122364966    0.93116576549319
O          -2.10652604255027    1.19464211533159    0.74385359655814
H          -2.64932081586572    1.92916089010121    1.03275182425858
O          -2.07584926240985   -0.27854028340986   -1.57966672874256
H          -2.27698945510316    0.30272072714531   -0.82289129339158
H          -1.32399245456245    0.13652621339557   -2.03429563516038
O           0.39516482801992    0.69981085055098   -2.34306580880789
H           0.90070298647765    0.13888335127526   -1.70592565277042
H           0.97119415712646    0.83964235855799   -3.09537251050037
O           0.16727408314898    2.23045671493998   -0.05126807464999
H           0.16181881916120    1.96847955737877   -0.98508412033007
H          -1.21095804934171    1.57935955107430    0.54781789421172
H           1.05362243211990    1.97847922197893    0.26589235706650
O          -1.29776768046948   -0.97688208032331    2.21483696039199
H          -1.01132263417463   -1.73913214481452    0.88125057064275
H          -0.37060409884501   -0.68305177632295    2.31197611054051
H          -1.75727448303761   -0.19204492795471    1.86468579514186
N          -0.71521755649910   -2.00522110655809   -0.11544444091204
H          -1.34188905691307   -1.46582683830810   -0.78169547337908
H          -0.75294809005005   -3.00485290636376   -0.27521333328198
H           0.26117412525030   -1.63104724795045   -0.25132794683161
