    26
        -50.47399119  Gyration_radius:  2.38945466079 Dipole_moment: 4.406
 S           1.00108172690975    0.29568871648667   -0.98551930274516
O           0.66817810742714    0.87874346181290    0.32379926587126
O           2.05890949842510   -0.67109521417684   -0.90043973294257
O          -0.22011022237821   -0.28545391782406   -1.57897479987450
O           1.44615328471930    1.45604954735095   -1.90840463709030
O          -2.33044843303357    1.19613596731746   -1.24176123780650
H          -2.88147441480084    1.17289197664083   -2.02538144612825
H          -1.55017936344642    0.61458352987525   -1.43001706158973
O           2.01790898452488   -0.25412455330619    2.34826103393371
H           2.93543241050689    0.01100598116509    2.26471875511459
H           1.53351726452489    0.23084289072534    1.65081185394920
O          -1.73347042450262    0.19644556831159    1.33149877286933
H          -2.28448263644274    0.60779021791164    0.65132052841262
H          -0.83608971341708    0.54457726805110    1.16188352049634
O           1.56491438133124   -2.49777520276184    0.97131746443541
H           1.74415647675141   -1.87676135207803    1.70960968002411
H           0.07346486159679   -2.35175249055568    0.64746958613945
H           1.92083778016436   -2.01951097793814    0.19391900174159
O          -0.34223307262131    3.04743176498331   -0.89370627286965
H          -0.02162636640502    2.64576876005190   -0.07344565242360
H           0.81097159458829    2.18639117534174   -1.69247251263049
H          -1.20545324432834    2.62590215098657   -1.05815484282720
N          -0.88419202343752   -2.05302062485368    0.24175906083741
H          -1.34319863021227   -1.33437110120630    0.86614876929419
H          -1.48456454792433   -2.85007893320122    0.06164767754025
H          -0.65800327851741   -1.51630461912017   -0.63588748171988
