    26
        -50.46983303  Gyration_radius:  2.43235391425 Dipole_moment: 4.335
 S          -0.08324086996128    1.02393456139773    1.78231058924265
O           0.73437640880186   -0.01520231645450    2.37082017189515
O           0.58285262396356    1.84659743633505    0.80508769904178
O          -1.34188619045956    0.47103483340775    1.25551017785434
O          -0.50104918592539    1.97778116064322    2.97593045681570
H          -0.55434943541730    1.36980100742195    3.70590268583093
O           1.40455913671073   -0.99229253312541   -1.19228827044819
H           2.13907736949359   -0.66616804074923   -0.63222061186673
O           2.85899938591068    0.18570650714970    0.74269286593105
H           2.78275321576206    1.12373578898990    0.54791586018309
H           2.19011529075927    0.02929812914133    1.43519764353788
O          -1.35394509527338   -2.03213900976437   -1.89039437759492
H          -0.48050083567107   -1.99687117063036   -2.29524876414833
H          -1.19974715813060   -2.31554411947693   -0.97573886239164
O           0.51975955704564    1.44568924104942   -1.83293867464924
H           0.95875272385891    0.56376997829099   -1.79253529965073
H          -0.93410865743223    1.01627744356486   -1.68936019976716
H           0.64270051844079    1.80807166533357   -0.93326402116330
O          -0.40017112735971   -1.92684852538529    0.69909199226729
H           0.19335498474697   -2.14316682381304    1.42336445224689
H          -0.81524861276999   -1.08078201147075    0.97196038798115
H           0.78649993240495   -1.38439825280126   -0.55027315398203
N          -1.84825211478204    0.54892367529645   -1.33838027682009
H          -2.68259333049081    1.01747810945836   -1.67122456018750
H          -1.77997477315515    0.58504941525134   -0.28870158966351
H          -1.81873375108747   -0.45973613907586   -1.63321635046053
