    26
        -50.46999104  Gyration_radius:  2.46205775883 Dipole_moment: 3.195
 S           1.73922910994463    0.20652170614881    1.35437828329460
O           0.37121401947317    0.63497961365040    1.70279080304566
O           2.00524782163297   -1.15477350254940    1.75131923987626
O           2.03393853429249    0.52362037996091   -0.01887944693351
O           2.69060321586423    1.10124584598417    2.26717471502138
H           3.08118421763951    0.43657533009942    2.82458254911152
O          -0.44451979610157   -0.98151800835963   -2.29253636114293
H          -0.40943253311549   -1.62960615651799   -2.99704817063805
O          -2.51616432694381   -0.05009212492513   -0.73976874599024
H          -1.93657278248129   -0.45032263365395   -1.41421994779224
H          -2.36344396628362   -0.56222572473162    0.07182652191069
O          -1.50264806908899   -1.19726612914314    1.56230823098116
H          -1.73700214575265   -1.50272082256351    2.43930993913898
H          -0.79694717799195   -0.51652242206273    1.68399979706178
O           0.82443219073993    1.44993048659102   -2.18324594899033
H           0.41099068336608    0.61264881079968   -2.46199969065082
H          -0.19209186353506    1.90007508537524   -1.08508046634873
H           1.49599459475495    1.17438660385430   -1.52869730771314
O           0.43793234601811   -2.19037375996025   -0.13947253606586
H           1.16624516009453   -1.88475506560305    0.43135398023071
H          -0.34904112544682   -2.13829155097353    0.42495149102674
H          -0.00809294076461   -1.40915565042212   -1.50822817212555
N          -0.85209529180091    1.93917374983234   -0.23968642337851
H          -0.32251783518554    1.53386260441638    0.57707334340287
H          -1.65554746544416    1.27434271694296   -0.43990162391287
H          -1.17089459392093    2.88026061779847   -0.04230404235655
