    26
        -50.47460305  Gyration_radius:  2.41933322331 Dipole_moment: 1.188
 S          -1.50874018116065   -0.20258842525718   -1.28316861878440
O          -1.88317371742197   -0.76695949509243    0.01218183744697
O          -1.48884736801026    1.25094282070950   -1.24549004667663
O          -0.29732732143623   -0.78034881507892   -1.81201720108298
O          -2.66909118387761   -0.59630549750027   -2.28474335435970
H          -3.37974807506217   -0.03846192906968   -1.98749030766491
O          -0.15912240758473   -1.91632809215969    1.61214252114080
H          -0.63713222376941   -2.56957654637164    2.12492341047366
O           0.68991281109116    0.62003663897032    2.33545238016188
H          -0.16140593514412    1.07605283199505    2.14164788857433
H           0.46589190961882   -0.32602459297771    2.31578038608165
O           1.00318867524225    1.64604096104648   -1.91806651475672
H           1.06147777256915    0.88619408965860   -2.50678077162631
H           0.05121548469199    1.66217547722291   -1.66930340609671
O           1.69176847005669   -1.86608971019714   -0.41192297383709
H           2.18156174014918   -0.40171609330862   -0.03952038998989
H           1.19027685544304   -2.13441900642479    0.37596551050851
H           1.00214538219465   -1.61705600892779   -1.06101085505838
O          -1.67999333614274    1.46982408143363    1.46111247221281
H          -1.61222763353252    2.04584550990236    0.69195764112837
H          -1.90123443418494    0.60381170038993    1.07040040718888
H          -0.81902222633618   -1.52238253575389    0.98993649787268
N           2.23256982083239    0.63300715585910    0.21346916894039
H           3.18869697400203    0.93505034685763    0.36140808052549
H           1.65042750929464    0.75024361392127    1.10219267159754
H           1.78793266843616    1.15903150019415   -0.58905645380086
