    26
        -50.46999240  Gyration_radius:  2.46210836994 Dipole_moment: 3.157
 S           0.70585658974501    2.09544707119762   -0.11034549416102
O           2.07042149527822    1.95545148510479   -0.55761357346356
O          -0.25880310316795    1.50215612455933   -1.05543219132385
O           0.44200599906871    1.64413089088867    1.23136992965905
O           0.40992672617467    3.66041504009343   -0.15642233127164
H           1.23064893628892    3.98870389026810   -0.50821681648659
O           0.48432255841310   -2.03745069303630    1.42498572823749
H           1.01850595951767   -2.68429819877460    1.88742793596534
O          -1.14356653343974   -2.22756133737327   -0.78485976087584
H          -0.58325891580752   -2.36925396486775    0.00066327629914
H          -0.55234133119452   -1.86266354315299   -1.46404352494321
O           0.52413355642091   -0.65350928639380   -2.33166948820713
H           0.77271560567528   -0.43743143974995   -3.23117297442482
H           0.24256449268321    0.19424643305147   -1.90953206773604
O           2.13318022586629   -0.66667450598439   -0.08378030064053
H           2.23470369118528    0.30254691333774   -0.08852473792614
H           1.12552128187681   -1.45178231961630    0.94081075393264
H           1.77998963776189   -0.87639236751557   -0.96251514119905
O          -1.10236908528332   -0.08049163209834    2.51395025675020
H          -0.50264737642449    0.65919240257761    2.29318278186052
H          -1.86810754959827    0.01634311166507    1.15555949332209
H          -0.56488553358290   -0.87627114949803    2.34792079185420
N          -2.12883881680737    0.05211962109019    0.11499876920778
H          -3.09317173596606    0.32543967619720   -0.03189252470821
H          -1.91324965098116   -0.90371013207964   -0.29415825271093
H          -1.46325710377697    0.73129792005183   -0.34069055704050
