    26
        -50.46983304  Gyration_radius:  2.43239912946 Dipole_moment: 4.332
 S           1.67732799969764   -0.55865424015837   -1.05228762585346
O           0.86066650448553   -0.61500291992043   -2.24594389209457
O           1.88366781139753    0.76163312829921   -0.51404896760170
O           1.17768535967569   -1.48836578416571   -0.02596303693263
O           3.10152256416600   -1.10979107093135   -1.47267839922276
H           2.87742985505557   -1.74730732260212   -2.14249893244496
O          -1.62544734227254    1.30514824671715   -0.18634817708429
H          -1.22422467726992    1.72262374792410   -0.97645460354993
O          -2.37645792450653   -0.89271677417702    1.75904528177097
H          -2.27014392074035   -1.33667295415859    0.90333139338659
H          -2.66422698092193    0.00171053802493    1.54634403533362
O          -0.00906230606299    1.92430138489824   -2.24828954140331
H           0.75750639978680    2.32182283996598   -1.82635188973726
H           0.25730299614835    0.99936692361949   -2.40656402672487
O           0.42687800185690    1.87154953588071    1.42731067958957
H           1.10764438283073    1.65880250505656    0.75858759185012
H          -0.41648614786730    1.85457846825355    0.91683368512423
H           0.35253624888422    0.50422252473827    2.09259111472081
O          -1.35342609790339   -1.39834937349809   -0.75600246245676
H          -1.34188085278245   -1.37948686575439   -1.71681926883717
H          -0.41426546361144   -1.53297195942369   -0.50630024844899
H          -1.59890492455891    0.35431725449678   -0.39408791239997
N           0.23994373453621   -0.56110100108267    2.26578890735221
H          -0.78771410014202   -0.77886057309647    2.22676872295326
H           0.65940255680481   -0.86446885760757    3.13669974294021
H           0.70272630329998   -1.01632741127477    1.43733784976905
