    26
        -50.46983300  Gyration_radius:  2.43225850038 Dipole_moment: 4.332
 S          -0.97920907107988    0.71592365294231   -1.66153346219343
O          -0.56878904767077   -0.47919876023914   -2.36737945161393
O          -1.94121658127115    0.50527506297888   -0.61000527767818
O           0.18839633748619    1.47333890669274   -1.18159284525076
O          -1.67588176595336    1.64161381946634   -2.74157704342227
H          -1.19493400362696    1.42041143338431   -3.53215418620829
O           0.21738231425535   -1.78952969634016    1.06111964454798
H          -0.48884024603301   -2.21260605971223    0.53020314079483
O           2.59089250290312   -0.01457802007751    1.68057590848020
H           2.14043148827036   -0.76964791661170    2.07435819041835
H           2.67620007843270   -0.23118893043947    0.73909635219898
O          -1.70437237822031   -2.29874944400823   -0.75372550800327
H          -1.28275293493207   -1.76256775823488   -1.45102115467725
H          -2.44494550961771   -1.76193184964935   -0.45850745467606
O          -1.34361103000370    0.17852917788752    1.97053261517996
H          -1.79217692664794    0.31945978352729    1.11332939215841
H          -0.82443650776877   -0.64789040454611    1.83043044203892
H          -0.23663403484841    1.20967105901517    1.79964322238636
O           1.78795976532364   -0.60217204062568   -0.89617776802879
H           1.60249729578090   -1.17305149137076   -1.64673412542412
H           1.26044488737761    0.20611187258433   -1.07191177206455
H           0.81668698837264   -1.42032493574809    0.38844989870003
N           0.60550913649016    1.77373315669777    1.41212567281268
H           0.66805099907012    2.70615046167960    1.80345409357011
H           0.45024054490003    1.80340094702413    0.37156598817726
H           1.47310770897150    1.20981798372314    1.59743547778743
