    26
        -50.46983304  Gyration_radius:  2.43235775866 Dipole_moment: 4.331
 S           2.01586718153825    0.41137635087384   -0.00467321747964
O           2.23429006123591   -0.85584440872265    0.65966919843137
O           1.55806260886983    0.31646037448059   -1.36734209701433
O           1.14503435890368    1.28570924737212    0.79821864776052
O           3.42629235738000    1.13125628311502   -0.04381936538514
H           3.83111603840833    0.81701243485828    0.75786337036870
O          -1.29179160929949   -1.59769535677939   -0.39694428263327
H          -0.55425131421924   -2.12877816147365   -0.76221860644226
O          -2.71844588134267    0.36068315085648    1.42017234873573
H          -1.98718252704615    0.00881323194349    1.95130848534715
H          -2.95091571864355   -0.34693821866254    0.80916468003406
O           1.13223608421624   -2.46356064821173   -1.18595325118269
H           1.60369150664299   -2.01865598367471   -0.45709928335114
H           1.32785430850281   -1.92480559067887   -1.95743225016302
O          -0.20733782918356   -0.64635196510262    1.97494300465826
H          -0.95463315595489   -1.30617348747847    0.46868471778641
H           0.43897230046976   -1.33169764490572    2.16528066621578
H           0.32764304612645    0.10078613199208    1.63122393800737
O          -0.99623877164528    0.40950825607667   -2.13526108646402
H          -1.25997583653098   -0.40327668960005   -1.64344898625159
H          -1.23779690447035    1.45397546612778   -1.05418674570087
H          -0.01937861685082    0.39859106776410   -2.09588463072176
N          -1.23479438352200    1.99240728411139   -0.11206296762618
H          -1.45741308803832    2.97490317178714   -0.21977883482155
H          -0.26282190157463    1.85808322846515    0.26861241121813
H          -1.90808231396488    1.50421247547179    0.53096413667113
