    26
        -50.46999237  Gyration_radius:  2.46215628402 Dipole_moment: 3.148
 S           1.32663077029245    1.68911399690134    0.53687685235100
O           1.12734153535995    2.61539181990952   -0.55120309701346
O           0.07085878040696    1.37396029143714    1.24358682360420
O           2.03554542493169    0.48100129315021    0.20270197396953
O           2.20583454535649    2.48127119769228    1.60366628153288
H           2.27798273772465    3.33103060399341    1.18215570992226
O          -0.07847564643452   -1.78779916817417   -1.79277288008517
H          -0.03137245701178   -2.15403468065249   -2.67665345573729
O          -2.10553092796661    1.28640170397074   -0.22062041740916
H          -1.30664111448564    1.38233406792189    0.35277046856565
H          -2.61825782757751    2.08710852251791   -0.10484872570342
O          -2.17134643756569   -1.47335925591002   -0.03464091644494
H          -2.36823846309890   -0.53166917907593   -0.16995303042922
H          -1.55957001317063   -1.71863480820575   -0.75340387011639
O           1.69600077498383   -2.14280059934684    0.27107477706039
H           0.58085391345918   -1.69611126048758    1.26989766740281
H           1.16929074699577   -2.22175288512886   -0.54501462773297
H           2.08383478448555   -1.24724165794514    0.21543093297671
O          -0.11377347745055    0.81804765222667   -2.07873234853165
H           0.01911539111025   -0.80423820272252   -1.90094675932987
H          -0.97828978881129    1.02342846186854   -1.68958541343618
H           0.49756324320995    1.44900629181955   -1.65704775815479
N          -0.24134441496826   -1.19861026385380    1.74795154953852
H          -1.10856643712968   -1.40256006631493    1.17025438328766
H          -0.05965759110684   -0.16348058268477    1.66277836613451
H          -0.34978805151136   -1.47580330282129    2.71627750371177
