    26
        -50.46983304  Gyration_radius:  2.43233796798 Dipole_moment: 4.333
 S          -0.19300549403630    1.85992431440894   -0.85819783375759
O          -0.20099311038427    2.42848120035594    0.47278273052871
O           1.06212079558414    1.28521703477337   -1.27027002724716
O          -1.30515572369878    0.91147408377257   -1.03420741604824
O          -0.49347020713983    3.06072577009584   -1.84642211589684
H          -1.06400656797138    3.61203012900769   -1.32116498234675
O           1.09319252876126   -0.93875695961701    1.51745733281840
H           1.65860942325371   -0.14633342255160    1.62666984506569
O          -1.41604936670083   -2.55502566789279    1.00246659984289
H          -1.72848094345531   -1.70934270241953    1.35997655814246
H          -0.54691527022372   -2.69043528076535    1.39529327797827
O           2.18137595489088    1.51433449395055    1.30566884483736
H           2.61813013942395    1.49777296409837    0.44970352608036
H           1.32774413958072    1.95272773152503    1.13069206134346
O           1.71094682802215   -1.29481017185262   -1.05705453408852
H           1.64937477541411   -1.31383480825462   -0.07316931000191
H           0.27130742514991   -1.64039168544291   -1.41130385378515
H           1.67767758516814   -0.34202307773767   -1.27373376478289
O          -1.45451424756577    0.16349323683125    1.48884041535869
H          -1.49588376315918    0.47669166619092    0.56002175635791
H           0.18906277266224   -0.58124171222851    1.56941171712448
H          -1.31004806053666    0.96346390415580    2.00149619873863
N          -0.81298469050275   -1.65239899378421   -1.45390751910917
H          -1.15652507345664   -2.12390079699901   -0.57942181699732
H          -1.16874883317517   -2.09913460236471   -2.29076018376968
H          -1.09276100591442   -0.63870662734132   -1.41086751638864
