    26
        -50.46983305  Gyration_radius:  2.43234669094 Dipole_moment: 4.331
 S           0.89008114994257    1.71478320085069    0.70728206022155
O           2.15113079912066    1.00459276692857    0.72362836584217
O           0.35225135395266    1.97623665864241   -0.60341970301348
O          -0.09906206657285    1.05474461466748    1.57525328634887
O           1.17430305089738    3.12241295314402    1.37558921329592
H           1.85241404978772    2.90791868589322    2.00759754731894
O           0.34856235772993   -1.49519909112614   -1.42158324960262
H           1.10461526403336   -0.99405933816904   -1.79143133817613
O          -1.55021884050729   -2.58529187175783    0.67099038400528
H          -1.30013614063243   -2.78138606257661   -0.23845938621196
H          -0.71372351897296   -2.43929861104450    1.13961083245433
O           2.26395770294021    0.34131322085881   -1.87462431937400
H           2.38580164965509    0.54713382857621   -0.92892657289976
H           1.78006491922829    1.09635657859005   -2.22022745211819
O          -1.43496297721665    0.44454712704789   -1.86210069963474
H          -0.83311028668257    1.16316066944156   -1.58431988448807
H          -0.85119466751869   -0.34912145313890   -1.89937259799304
H          -2.10865153403754    0.20489949625344   -0.51778184094767
O           0.85594506099675   -1.38711901709538    1.30582607321721
H           0.54088130432821   -1.52482073901155   -0.46761033424295
H           1.81202934307453   -1.28962115958648    1.30714625570709
H           0.52136125735526   -0.48710316331812    1.50715180979885
N          -2.28480146356156   -0.00589502056230    0.53193948297236
H          -3.19367883911636    0.30984514830899    0.84929785546704
H          -1.50714408258019    0.49100686857473    1.03807234747708
H          -2.15671483564175   -1.04003628039278    0.67047187456717
