    26
        -50.46999028  Gyration_radius:  2.46205765843 Dipole_moment: 3.208
 S           1.68321167629997   -1.29720507085504   -0.62119680868731
O           0.47247288653860   -1.07715918527240   -1.43506528345606
O           2.72788778169440   -0.35000215261384   -0.92579179597892
O           1.34027781091170   -1.41975367278192    0.77179114967319
O           2.24558249444049   -2.70847117757602   -1.10146041671141
H           3.06768667367380   -2.44738022630001   -1.50272593561679
O          -0.52436108840157    1.53113113678944    1.94855836996276
H          -0.36697692291129    2.21370980578810    2.60193046269483
O          -2.20081881751691    1.40844804656736   -0.22968938348993
H          -1.73024090377318    1.61227735042776    0.59976853881742
H          -1.56822948863578    1.60032056601906   -0.94192544735606
O          -0.10342619874413    1.41293434092063   -2.03082163089316
H           0.13138932399306    1.60093171062454   -2.94015319733515
H           0.13881876415316    0.46852499921732   -1.87029509941469
O           1.45636098252378    1.68358029371484    0.23673754483636
H           0.97013251836870    1.89889426968849   -0.57431738379981
H           0.28205284638270    1.52035987646479    1.36726823306148
H           2.04739074211177    0.95305583646295   -0.02157781570962
O          -0.75590520280487   -1.17160286899897    2.36856063263174
H          -0.72953219802710   -0.20148395909612    2.45703795359574
H          -1.47311534359774   -1.29645683217134    0.98569431717070
H           0.11968762145093   -1.39805161702302    1.99798160221441
N          -1.76708167321133   -1.19006198858264   -0.04098181387488
H          -2.11893985369139   -0.19560438388005   -0.16344186286328
H          -2.45599073388765   -1.87920005265541   -0.31802175678184
H          -0.88833372738170   -1.27173506496207   -0.61786317266950
