    26
        -50.47399122  Gyration_radius:  2.38943467782 Dipole_moment: 4.402
 S          -1.35264287259645    0.45446794077260    0.15821433929392
O          -0.37018694646840    1.40117290019788    0.72379858725296
O          -0.73796102799240   -0.87946741185904    0.06912895795094
O          -2.52243875244470    0.35772544237152    1.16743016616856
O          -1.85750431130887    0.90942009044284   -1.10633110079419
O           1.93354261535526   -0.95999393318997    0.39320992720274
H           0.98812217836399   -1.14669562110056    0.23020539823923
H           1.96500566148071   -0.65628838662399    1.31097272190229
O          -0.62020844448091   -1.81424147384872   -2.44404292971093
H          -1.51656915056046   -2.01652337897719   -2.71744044821636
H          -0.67863280775283   -1.55136270646876   -1.50396393185836
O           1.00648138817289    0.39876951882676    2.68921255174753
H           0.48316612842251    0.83938298925288    1.97194673458417
H           1.15013344181800    1.06134706257487    3.36639316525535
O          -0.01472423773262    0.72333391205691   -3.01771068625075
H           1.04622797238915    1.02359215606517   -1.95268716890412
H          -0.07909388211609   -0.25451457274650   -3.06820388480739
H          -0.80625843174929    0.96644323874172   -2.49409060223301
O          -1.17263363334388   -1.26044936539331    2.69049046921202
H          -0.36834564184446   -0.77728819614643    2.95422700970702
H          -2.16194038021387   -0.21477574505664    1.89256567491285
H          -0.95649855472804   -1.65308233800516    1.83255577618287
N           1.57234344768235    1.23351516855614   -1.03062396214647
H           0.82691584594590    1.52757556272183   -0.34696358164459
H           2.28398668312453    1.94520823685634   -1.15406885663521
H           1.95971369257985    0.34272889997124   -0.61422433641457
