    26
        -50.46983305  Gyration_radius:  2.43231316546 Dipole_moment: 4.333
 S           1.68746925046079    0.84894521863363   -0.81520700566691
O           1.47810529699386    0.03468171437976   -1.99333454108152
O           0.70464615755642    1.88058926806325   -0.60222681791144
O           1.85882866872512    0.01055249074694    0.38270565417477
O           3.07745068655131    1.57723153585320   -1.03063762282713
H           3.56234212390516    0.93313619801213   -1.53589813175083
O          -1.95207979600908   -0.49858031704622   -0.56330675505841
H          -1.84924913328066   -0.02183292898711   -1.41284507644007
O          -1.17856604361724   -2.19916649152669    1.81996629932874
H          -1.98560379166532   -1.90277581390317    1.38529550269960
H          -0.59383592448527   -2.48829500923157    1.10225237839014
O          -0.97643733655838    0.90514314834915   -2.64275181130506
H          -0.07952968568414    0.53007577339982   -2.56288128774339
H          -0.89096476811165    1.79747011668134   -2.29608885477019
O          -1.45285852709612    1.64497028705882    0.95094433835341
H          -0.72664379699198    1.96969359965871    0.38256020776204
H          -1.85359229468760    0.91382414895874    0.42466782743168
H          -0.61019218561549    0.83017508665750    1.92238867187954
O           0.37821983467705   -2.00349241990155   -0.45326943647030
H          -1.17357244298712   -1.08261954272856   -0.53517036678843
H           0.57701719176389   -2.09604772114005   -1.38896634245262
H           1.00856101946473   -1.32043291364368   -0.13923047340735
N           0.08628897767176    0.11164234928513    2.34218706554083
H          -0.37887536564065   -0.83059275210302    2.31331614054535
H           0.38866923044172    0.35710919558955    3.27747809200801
H           0.89440265422636    0.09859579886232    1.66805236556443
