    26
        -50.45538168  Gyration_radius:  2.56581538234 Dipole_moment: 4.098
 S           0.02000749613070   -0.48136997190684    0.93383030907698
O           0.58153746476686   -0.32847759641867   -0.43128487329841
O           0.38394347514090    0.63783734984569    1.76757418842535
O          -1.42106177702005   -0.69954141398593    0.83300405937318
O           0.62261306403551   -1.78155924173236    1.50933716050113
O          -1.78876305880454    1.92237807582573    0.76906420573440
H          -0.92986528547667    2.02698182112260    1.19997508535624
H          -1.96110747536960    0.97042576708108    0.88253450565865
O          -1.96823251553621    2.08653810286339   -1.83224283487746
H          -1.85944795958335    2.13737064629479   -0.84229690115697
H          -2.90910415008167    2.16883526784157   -2.00057631445759
O          -2.60373819826338   -1.75363410223046   -1.21105452450662
H          -2.26578072938904   -1.41401067905130   -0.34154851003815
H          -2.43590346096832   -2.69778810111953   -1.21281107568575
O          -0.95584449256419   -0.18193067361157   -2.34289880500404
H          -0.22714443125749   -0.24864753907338   -1.55033286972165
H          -1.67589677599047   -0.84595609851241   -2.04534690667642
H          -1.35957534587029    0.76394229059753   -2.23016200278121
O           2.62112882184341   -0.61925139926532    2.56803724986489
H           3.13125924832418   -0.43390287097642    1.74098126091899
H           2.01094092121638    0.12918523620794    2.65189237814049
H           1.46298277087016   -1.48496182535385    1.98853938289041
N           3.41254761426858   -0.02725976512099    0.06661974183297
H           2.43710384041780   -0.09158271276153   -0.22320305147018
H           3.94699783672336   -0.66538946101846   -0.50934135790523
H           3.73040309245609    0.91176890441100   -0.13828952020797
