    26
        -50.45538147  Gyration_radius:  2.56575527602 Dipole_moment: 4.108
 S          -0.32130907997232   -0.69831140769891   -0.71807820459545
O          -0.39839687197317    0.16866759801671   -1.86823754437988
O          -1.58357526948648   -0.83559629052116    0.00453160177740
O           0.08986316496283   -2.11981128489704   -1.15966810354835
O           0.72637469226713   -0.23376608454717    0.22472115832516
O          -1.77793334303991   -1.30717858245864    2.54002226400775
H          -1.83862143811236   -1.20624868240182    1.55430864847315
H          -1.55935114518684   -2.22667531359498    2.70209688159043
O          -2.07854080828152    1.73126247973004   -0.42042931182151
H          -1.47134760091558    1.69437160642067   -1.17175710076917
H          -2.21634336091923    0.78779137988118   -0.22144745150735
O          -1.21365815792712    2.54178242820280    1.90749774247740
H          -2.01178424135192    2.69605025380285    2.41695340410681
H          -1.51387612858049    2.34148570099291    0.97775530587608
O           1.41793224276904   -1.32080647306704   -3.17561709686190
H           2.20137595702019   -0.95625047283854   -2.69405912800753
H           0.64793927366109   -1.97822047472115   -1.99173053218155
H           0.77527331343983   -0.59526611389984   -3.18230094883881
O           0.07215348219751    0.43708809595005    2.49661524444330
H          -0.40720822551785    1.33918268333065    2.33154926286104
H          -0.65920977255186   -0.25416417726919    2.68407879858926
H           0.42723089755337    0.14998047507038    1.51941878643602
N           3.09887608952789   -0.16266874580271   -1.42400636602409
H           2.32610893155131   -0.12001493343941   -0.76021474708060
H           3.40795061751318    0.78618168408434   -1.59399989540658
H           3.86007681136701   -0.65886536830297   -0.97800269794618
