    26
        -50.46983297  Gyration_radius:  2.43236012635 Dipole_moment: 4.333
 S           1.91692114177172    0.34079716084675   -0.66527725666554
O           1.39909227552461    0.37238687119702   -2.01647841285269
O           1.51295106326456    1.44255836828037    0.17049269912108
O           1.63882304391268   -0.95441768714138   -0.02306838642130
O           3.49297035061980    0.42210737017058   -0.80105983165117
H           3.64357949454779   -0.02923159869145   -1.62500367760382
O          -1.94116246190812    0.70630812448597   -0.33324355635990
H          -1.60001149140679    1.44055865177887   -0.88468024184982
O          -2.12215023326715   -2.07819123937358    0.84517531426351
H          -1.71090907876646   -2.19770607315768   -0.02500297297536
H          -2.68637084641182   -1.30264000539059    0.75431012372456
O          -0.35471717507425    2.38243990816723   -1.71891051666625
H           0.11939571913940    2.86481892217528   -1.03608568708526
H           0.26538565957827    1.68026686077148   -1.99076250778524
O          -0.57098302175477   -1.47857051437452   -1.36022184060923
H           0.29110109378115   -1.36911239712263   -0.90474563562792
H          -1.52075430049709   -0.08216857449656   -0.71997324798353
H          -0.40302470895945   -1.18010712520533   -2.25819107026417
O          -0.56533434411750    1.41233034288117    1.84495743946927
H           0.24877143566485    1.63286514158545    1.35052800159091
H          -1.23839775991532    1.27230812924348    1.13811517588500
H          -0.22810224789693   -0.03645005605160    2.16926841957197
N           0.04394176019930   -1.08329239667756    2.08192565078010
H           0.39122508454773   -1.47319063641726    2.95015897396508
H           0.77898983505180   -1.10552621017583    1.32904649309134
H          -0.80123030763040   -1.59914132731972    1.72872654094224
