    26
        -50.46999231  Gyration_radius:  2.4621216407 Dipole_moment: 3.146
 S           0.70745188901342    1.58748622832984   -1.37120373124501
O          -0.51365877761426    2.05776814029774   -1.97902863651992
O           0.69050029326073    1.71868936919448    0.09784273888239
O           1.12332754960306    0.26353512900915   -1.75581911588943
O           1.83399848998470    2.60386769105277   -1.85718909001020
H           1.31516768597626    3.21848864826937   -2.36510861217978
O          -1.03142353427338   -2.30325906625186   -0.21884537816498
H          -1.62582820509850   -2.97565524430983   -0.55372939478114
O          -0.80723364402141   -1.09619401297834    2.24376278504817
H          -0.99905159864300   -1.66661948619018    1.47643570923506
H          -1.26189524313740   -0.25651893492227    2.06459129395298
O          -1.62731481516890    1.36314690215820    1.27706945559460
H          -0.76395368934471    1.56588536275783    0.84165124287927
H          -2.01251174071094    2.20635939413268    1.51794710524622
O          -1.94711730270848   -0.01017728199301   -1.10008218483244
H          -1.31809967957941   -1.45151897121567   -0.64430453121917
H          -2.14559944491094    0.43177417962325   -0.25966388513117
H          -1.44274527183878    0.65097929362765   -1.60813775810744
O           1.66943139231911   -2.08001404788953   -0.65433026793100
H           0.75069053308567   -2.39180106327778   -0.56287148377619
H           1.60180884401166   -1.32601070980838   -1.27275902070650
H           1.76753243947476   -1.15719945482622    0.60255744430314
N           1.58851861658202   -0.41886851343314    1.36069168375316
H           0.71277693104138   -0.71380138060331    1.88356508980044
H           1.35208049893299    0.47819105625515    0.85954571232856
H           2.38314774390302   -0.29853321756927    1.97741281922464
