    26
        -50.46999131  Gyration_radius:  2.46210749787 Dipole_moment: 3.194
 S          -1.82391038072128   -0.93980894273440   -0.83169259609708
O          -1.82371373190092   -0.02953563574756    0.32916519576579
O          -2.01165336237181   -0.23898984155187   -2.07877207570696
O          -0.68935955968001   -1.82491963023254   -0.78004231695116
O          -3.13353250210753   -1.82901263813061   -0.65116012633969
H          -3.64163356860954   -1.55683957972955   -1.40795883617401
O           2.46362235958160    0.07071946980745   -0.57988232207747
H           3.23631486263609    0.15670620958618   -1.13949056560951
O          -0.78190517385843    2.35070223272867   -0.04103178692589
H          -1.23672695281769    1.48382484693800    0.09253382173972
H          -1.47337110044954    3.00787958765640   -0.12761597655823
O           1.45131201114052    1.65165955378425    1.43160789710805
H           1.98599682397371    1.20273519674107    0.75074596619961
H           0.74585601869764    2.11179454195741    0.94697408344113
O           0.42056158672302    0.84883021405295   -2.02771917031570
H           0.11742626956258    1.60938321700630   -1.50782747989312
H           1.68250914641845    0.26097272193254   -1.16478990609805
H          -0.38897506758926    0.33403377828968   -2.19924290419041
O           1.51678017565711   -2.20249201524886    0.63239708111590
H           0.75750430262525   -2.32007552126703    0.02822819999111
H           2.06123598938222   -1.52264542922713    0.19531494168221
H           0.70614187299994   -1.30362543902212    1.62076034873496
N           0.10476513577642   -0.53154725617960    2.06126454472560
H           0.65951284508556    0.37169713940921    1.99629288226816
H          -0.16657101441837   -0.74930004456673    3.01267787318885
H          -0.73818698571018   -0.41214672627212    1.43926323695275
