    26
        -50.46983301  Gyration_radius:  2.43231923077 Dipole_moment: 4.341
 S          -1.29215399569045    1.53048406845350    0.47011626873388
O          -1.18412194942432    1.98775624636163   -0.89881431986948
O          -1.81559475169542    0.15562533217593    0.52785648635197
O          -0.09558539215333    1.67418839320295    1.25938287004230
O          -2.39944499882929    2.43873348345785    1.14676295638222
H          -2.98544624586221    2.61220371994201    0.41749645046107
O           1.79258942448871   -0.29667508544252   -1.03688207607243
H           1.91776533054975    0.66978969282702   -1.13615930615231
O           1.47101537679812    2.37537401625847   -0.97604963769192
H           0.50277509918764    2.32976195946111   -1.08473470602013
H           1.59458890485262    2.59955982345904   -0.04972306694032
O           0.32777554843056   -2.94200449543320   -0.87889829998792
H           1.22771568630373   -2.63074941063704   -1.02490693368474
H          -0.23096818819783   -2.37648725425752   -1.43441963032478
O          -0.85651041903622   -0.62306154037319   -1.80025646042033
H          -1.30736742244580   -0.35183544228887   -0.97212670023772
H          -0.96900973282691    0.12929743965994   -2.38755334368639
H           0.88647488593928   -0.44258339818243   -1.36189930923667
O           1.73154812547773   -0.23494519636111    1.63351409587007
H           1.18800284274071    0.57658907128381    1.67660197197885
H           0.59745403379289   -1.24988413492973    1.68507783966573
H           1.97389928282523   -0.30459014483123    0.68040012549188
N          -0.30992200633548   -1.80387290705476    1.46822110289405
H          -0.11834038072989   -2.40348500626621    0.62620776974984
H          -1.01171427771838   -1.06907135767507    1.19381960123904
H          -0.63542479045025   -2.35011785276621    2.25696624149574
