    26
        -50.46999162  Gyration_radius:  2.46210340392 Dipole_moment: 3.182
 S          -1.13498651382322    1.03001667622394   -1.59776812862170
O           0.33814121478399    0.97688866084269   -1.54011261676587
O          -1.69430924972814   -0.06330513293138   -2.35492941812579
O          -1.68582848473003    1.22119942068218   -0.28119426185662
O          -1.46180935939661    2.33719775976214   -2.44824556635753
H          -1.87738510855174    1.95411475109366   -3.21347270989439
O          -0.54426823266205   -1.41143050863518    2.03210418937398
H          -0.97624004591781   -2.10074582025603    2.53789120697807
O           2.06119002243385   -1.07674110717112    1.21383422336345
H           1.22132985863766   -1.33489842429974    1.63693730567095
H           1.98786312302833   -1.36855263382153    0.28987951047946
O           1.42235418356147   -1.41177254094929   -1.45536479242719
H           1.03048091699903   -0.51028231917323   -1.55488051931071
H           1.78249383179690   -1.64546923033044   -2.31152552270935
O          -1.12488299517723   -1.87310395534348   -0.48283278500007
H          -0.85609930160721   -1.52618157882480    1.09504249839302
H          -1.53067169173757   -1.24006504312065   -1.10271384284368
H          -0.23703241496509   -2.02662577125604   -0.84172592588808
O          -0.90058215635109    1.30186740806486    2.24506732749703
H          -1.41379494566575    1.39325899760667    1.41823399968746
H          -0.86668776786085    0.33957448584041    2.39517316482923
H           0.46968748587210    1.51069035884978    1.52355805539923
N           1.31672729821423    1.43393517779067    0.86901126463241
H           1.78071608830615    0.49958388569216    1.06716457786203
H           1.95701326856467    2.21193091552830    0.97384278180045
H           0.93658099599447    1.37891556812812   -0.11297400621909
