    26
        -50.46999080  Gyration_radius:  2.46199102223 Dipole_moment: 3.191
 S          -0.10603559256493    1.99985036330921   -0.94342173012022
O           1.11578127840354    2.06316034417458   -1.70806041723745
O          -0.95578936606431    0.86003292720811   -1.33748799524797
O           0.05167989271269    2.04177209012860    0.48714456158373
O          -0.93407076630288    3.29198876991061   -1.37164665642438
H          -0.37085658055341    3.65040940845695   -2.04935545127360
O           1.41715350434588   -1.13143318418210    1.76861288855447
H           2.21819277125308   -1.38711951844467    2.22745445303816
O          -0.41002650749820   -2.57352671939585    0.30203907806076
H           0.29598147531956   -2.25108581404451    0.89253096498422
H          -0.11722310339485   -2.35417460156563   -0.59803756260368
O           0.29060333092716   -1.33110400817820   -2.06793248557963
H           0.28017696379540   -1.41871142482495   -3.02162396439312
H          -0.18980499908428   -0.49306195201611   -1.86031703140614
O           2.18013776861356   -0.06104159905361   -0.49999826123031
H           1.93249854272855    0.82232652280617   -0.82855535752630
H           1.71375572943551   -0.62915368540754    0.96347102894379
H           1.77035141564853   -0.67559331343484   -1.12870562817606
O          -0.53157654206793    0.59946848456997    2.62823893207600
H           0.21167694864283   -0.02731406363858    2.56133069420689
H          -0.27947567700399    1.32840179326126    2.02783191810059
H          -1.51328571106566   -0.03498858314578    1.59153464883037
N          -1.95297045343400   -0.46943032904049    0.71401657443068
H          -1.49328698298569   -1.41572462899534    0.57030261250696
H          -1.66209120892364    0.13339791669806   -0.10071025109268
H          -2.96149614095481   -0.53734520512137    0.78134446697239
