    26
        -50.47399124  Gyration_radius:  2.38944852628 Dipole_moment: 4.400
 S           1.39785427457849   -0.16606980081468   -0.28326290861914
O           1.62212711486313   -0.02375253704312   -1.69407044764754
O           0.30846994313571   -1.10792026351444    0.01871357110216
O           2.68227291771335   -0.71615149667648    0.38287903501909
O           1.10212230784392    1.13312030809284    0.35402587933047
O          -1.92922649663097   -0.01805195470175    1.04530819889694
H          -1.55096989697676    0.30599177996334    1.87433544192701
H          -1.23774237145118   -0.59950582086662    0.67243227209096
O          -0.94560052922140   -2.00089126013407   -2.17987270502735
H          -0.33731795265507   -2.58010650154996   -2.64204824972763
H          -0.49866248201103   -1.75144907880084   -1.34665243756523
O           0.12473001753650    0.90083061554611    2.75275313670158
H           0.52909036627108    1.04396763362771    1.85916935218507
H           0.47465060872688    1.58748348059379    3.32215937411952
O          -0.63611536461435    0.52498693256467   -2.99169224172088
H          -0.98544822010026   -0.38657728840915   -2.89195841842478
H          -1.10156839898979    1.29492602233452   -1.75060338421415
H           0.30651056263542    0.42454808723089   -2.74452001487221
O           1.34540819501886   -1.53314557193909    2.45774499015669
H           2.36806085641600   -1.04809621869985    1.26302554342306
H           0.92566375908577   -0.74077215465449    2.83956398550724
H           0.73622336479289   -1.82833278994823    1.76590994276513
N          -1.18602998807803    1.74748628381363   -0.77123925724716
H          -0.21326949654446    1.71923831051022   -0.36818665312912
H          -1.74587933173798    1.12767032356925   -0.12362651683818
H          -1.55535374959656    2.69057294991847   -0.82028748820095
