    26
        -50.46272417  Gyration_radius:  2.48188501741 Dipole_moment: 6.103
 S           0.35221028434187    0.50362573065654    2.25746641976345
O           1.73574057574263    0.90079578978676    2.31352552454759
O          -0.54829662859672    1.45092724511631    1.64795993720968
O           0.16571654068951   -0.83326417977853    1.65989579119980
O          -0.10316696387266    0.33888775723292    3.77610219156461
H           0.74191845663920    0.29863788771008    4.21136339261575
O           0.21249571683575    1.21246094102354   -2.01883180670989
H           0.58825232588731    1.79677735615513   -2.67873300270457
O           1.75823895198237   -1.83083233404813   -0.30514365417708
H           1.08808511453953   -1.89917327793158   -0.99783273757718
H           1.27499579144247   -1.62738264000906    0.51484656731175
O          -0.31362324417459   -1.40248994068992   -2.25757827234255
H          -0.25656430125711   -1.69395910944949   -3.16798536597482
H          -0.10247053670962   -0.43927224638319   -2.24936707047045
O          -2.04101749619604    1.58273384254770   -0.50538329348057
H          -1.60081381082210    1.78321722146546    0.34702195484215
H          -1.32174506061062    1.64010011286528   -1.16040922113309
H          -2.05440849299668    0.07184539331455   -0.22402642502522
O           2.10827807112534    0.84955026050938   -0.32094449733442
H           2.02662152811720    1.02172593313646    0.63610853992115
H           2.24150850706822   -0.11915286117493   -0.38466458189682
H           0.91823729920736    1.13445883388539   -1.30152970011614
N          -1.81033271909917   -0.95846758393759   -0.00510963771014
H          -1.41309572970703   -1.37771738166266   -0.85887272263626
H          -2.61100792065345   -1.47969367939221    0.33262551689346
H          -1.03575622892363   -0.92433907094767    0.73949615341926
