    26
        -50.47001086  Gyration_radius:  2.46310224801 Dipole_moment: 2.613
 S          -1.09793075811672   -1.57667032984847    1.10487337630657
O          -2.24768840529290   -1.81401804216955    0.26753740007211
O           0.14982287878672   -2.05294030010977    0.55608507882724
O          -0.98090951946744   -0.18020826729907    1.54854796129362
O          -1.36374080511602   -2.38632274405781    2.45114077145118
H          -1.83445104419266   -3.14544263674856    2.12391403894158
O           1.22233580917558    0.22030887263309   -2.19529769087194
H           1.37661337873618    0.11762849292709   -3.13506122356458
O           0.74965199134586    2.44130262991169   -0.64161797375341
H          -0.21479706392054    2.37850222245016   -0.54183672340683
H           0.98353496522369    1.79411099484730   -1.33265302131669
O          -1.85438675134920    1.68296786216088   -0.08809319905622
H          -1.59149204327183    0.99120386730066    0.56497907007356
H          -2.71444187558130    2.00121722477158    0.18861161152886
O           2.49882664263538   -1.04807417276751   -0.12340184010475
H           2.02419681660164    0.08908706339412    0.83187504282122
H           1.75088656420538   -1.63694223229136    0.10468874287553
H           2.24457743744987   -0.66604837431597   -0.98297404040389
O          -1.28149418431035   -0.42864842278661   -1.78329819216332
H          -1.60480339877922   -1.09396960558101   -1.14733706722908
H          -1.63164585667971    0.41261778086893   -1.45155182340489
H           0.30510509917218   -0.12750649962425   -2.03083474078008
N           1.44475335744733    0.83815214039280    1.33865426586067
H           1.89641296495899    1.17352185372623    2.18108250632578
H           0.51064474761020    0.39900735095743    1.55100089510280
H           1.26041906266366    1.61716326127447    0.64096676459554
