    26
        -50.47000955  Gyration_radius:  2.46298978159 Dipole_moment: 2.587
 S           0.19742867265740   -1.30035564524973   -1.78427592072147
O           1.38933104528368   -0.79422093121087   -2.41822411379927
O           0.43481752824281   -2.01525025011029   -0.55201076130490
O          -0.84675325805252   -0.28059134439696   -1.61218735310682
O          -0.44368375385574   -2.33364034880361   -2.81357123617496
H           0.33322519537063   -2.74004488534827   -3.18244723263139
O           1.27395340939624    0.43298199339183    2.13327391011431
H           2.03704444417655    0.58830202400047    2.69103524374669
O          -0.05781190096642    2.19550425842396   -1.21024939420214
H          -0.36703498688191    1.28540818835090   -1.43400667169429
H          -0.12686441291082    2.70891338652240   -2.01599444506034
O          -0.85188224349941    2.03528823059209    1.43755082424158
H          -0.07036795523198    1.60867499226044    1.83546921572398
H          -0.57161896279694    2.31796987402928    0.55129217878509
O          -0.28234306253187   -1.82203355506954    1.98529238272756
H          -1.42202016256332   -0.96433354042602    1.35640566481776
H           0.05933501531480   -2.11860940841373    1.11717294984480
H           0.33434800990165   -1.11665403919282    2.25298862936145
O           2.09905745881233    0.69706610909682   -0.33806203753335
H           1.56221476961875    1.45163178179814   -0.62609696355416
H           1.61597804199020    0.43025258326286    1.19923550922943
H           1.99524564257158    0.03953692197151   -1.05130055245694
N          -1.98014098693969   -0.25761607679444    0.77082495912644
H          -1.70134751566810    0.71247776643998    1.10076558177799
H          -2.97983414266848   -0.41147212942013    0.82608336503579
H          -1.63027589875136   -0.34918593568252   -0.21896373213034
