    26
        -50.46983305  Gyration_radius:  2.43241226583 Dipole_moment: 4.340
 S           0.72733030267521   -1.61074573603439   -1.05344559474326
O           1.20184218447919   -1.43088447001827    0.32859932591671
O          -0.61510604744988   -2.15121616710985   -1.07516315913381
O           0.91934067566121   -0.41772770283829   -1.83783125995890
O           1.65718458062148   -2.72765716849990   -1.68326211196751
H           1.21873563120259   -3.52696591407013   -1.41089920865272
O          -1.62842009339032    1.31368687727167   -0.04019352342143
H          -1.91411626771563    0.96378088732506   -0.90936884101842
O          -0.48387543265450    1.28818482210473    2.76509896044212
H          -0.83662474126217    0.39540232595016    2.62662460201124
H          -1.03396549064547    1.86470805360800    2.22372000976757
O          -1.84116051885139   -0.11048625700288   -2.31483764763934
H          -1.09390342203604    0.18662020805494   -2.84114586156453
H          -1.53142497107733   -0.93986370926060   -1.90532004503438
O          -1.16905148818640   -1.01372738625942    1.40181851200264
H          -1.76313239026523   -1.62280648417060    0.95492141467893
H          -0.27965907843387   -1.25216473818225    1.06317818351991
H          -1.52326571713272    0.51282620443523    0.50340884850840
O           0.78605106989736    2.07480251486158   -0.89314297109052
H          -0.15982075883437    2.00959692939533   -0.62251497320294
H           1.45323795099285    1.58075043153029    0.38290845912600
H           0.92782364798387    1.27518368276554   -1.43757553114164
N           1.71710117357348    0.99134823414024    1.25502043418922
H           0.97204894095630    1.15052289587134    1.97924779281988
H           2.64213213733710    1.20476464570095    1.60891069618854
H           1.65069813254030   -0.00793298957233    0.93124347939943
