    26
        -50.47000847  Gyration_radius:  2.46302945021 Dipole_moment: 2.587
 S          -0.30002240417252    0.63476459873522    2.10274560346763
O          -1.72167983764813    0.86521705326497    2.16856327750394
O           0.07413801043860   -0.75616694749692    1.99593971176078
O           0.37340385816737    1.44505935158509    1.07833352007880
O           0.29944620592752    1.17984653697763    3.47453714250291
H          -0.37288229545238    0.91657504370626    4.09376904063614
O          -0.65486565951708   -1.94579146365942   -1.46432658495031
H          -1.22748351390812   -2.61464621052965   -1.84151244415431
O           0.55771201170236    0.26785337208581   -2.56009695412547
H          -0.04583581281032    0.96445148363991   -2.25276723622589
H           0.10326352077240   -0.57411571456499   -2.37132826883077
O          -0.99297088952530    2.02963527211109   -1.09133813841552
H          -0.49596818871867    1.88092026624676   -0.25185664214759
H          -1.32722698759391    2.92642781137045   -1.05091421691599
O          -2.21269930406219   -0.28043873429450   -0.17646464573906
H          -2.05056255087072    0.53667058472060   -0.67293066683297
H          -1.23876623824337   -1.37957394679758   -0.89183036777754
H          -2.12450023419775   -0.01754106882684    0.75894506027516
O           1.41068754679820   -2.29131950103113    0.30867316081041
H           1.98556718757797   -0.91035226124479   -0.13049017136610
H           0.93819302629414   -1.91990784011632    1.08143916765691
H           0.71275718491136   -2.40651911817509   -0.36150282992824
N           2.09517935392419    0.11876433800482   -0.41797256046819
H           3.06197681797900    0.42114646755810   -0.41662911840141
H           1.51488584521877    0.68022582213947    0.25920779712763
H           1.63825337701385    0.22881480462486   -1.37019263546835
