    26
        -50.46983300  Gyration_radius:  2.43226033506 Dipole_moment: 4.340
 S           1.31197255074547    0.81049743669581   -1.36161344653179
O           1.37783687613873    1.99435279457634   -0.53154117467066
O           1.75308019171235   -0.38103751975642   -0.61794322837801
O           0.04584929543873    0.58879683443862   -2.01224785963891
O           2.38510872483682    1.02163489818002   -2.50740934780057
H           3.05499879738126    1.52778728020197   -2.05987613465120
O          -1.68144205072078    0.56541887850834    1.10822284424319
H          -1.74411722039299    1.41138403115820    0.61833718980779
O          -1.22860655732334    2.63510321753121   -0.55247513165809
H          -1.43988701760311    2.28239434345709   -1.42110233007395
H          -0.25802697211157    2.55880400770606   -0.49220864342051
O          -0.38527676005405   -1.80385589203566    2.47621819452526
H          -1.24599161592905   -1.37146414278618    2.45762723325197
H           0.25998176486779   -1.08382464501362    2.55269992721995
O           1.01428263058612    0.46863113361968    1.76534184337912
H           1.38589196860646    0.15014569742983    0.91506890435377
H           1.22959532758475    1.40511486852515    1.78126213315226
H          -0.75418615291813    0.54279477327510    1.40424732207902
O          -1.90956864515254   -0.96449725439864   -1.07031690289022
H          -0.84270667034082   -1.92948417058922   -0.57068913924991
H          -2.04950257728291   -0.43303375517111   -0.25178924684555
H          -1.33205007056272   -0.39807864309418   -1.61941589161479
N           0.05235225054180   -2.34288333294952   -0.11770532700478
H          -0.07784334615981   -2.30681842362179    0.92489605415492
H           0.81773332850885   -1.66802739340173   -0.37551587521480
H           0.26052195959659   -3.27985501252920   -0.44207193654209
