    26
        -50.46272421  Gyration_radius:  2.4818679527 Dipole_moment: 6.100
 S           0.37734874556337    2.26535004138801   -0.44686359575854
O           0.36057801996659    2.01047221847542    0.97252626678021
O           1.67860501319931    2.28602689493041   -1.06441738715899
O          -0.56796707044556    1.36549679035476   -1.13653629291644
O          -0.21809651911624    3.72775973191579   -0.66481982852446
H           0.36013819497657    4.05477993470299   -1.34599792775131
O           1.13264718208495   -1.65047244120337    1.25811803181066
H           1.85619597830802   -2.17317354920494    1.60647463762855
O          -0.92745855447297   -2.50011216067822   -0.22652696752603
H          -0.14776859346184   -2.26515215842778    0.32976924731596
H          -0.98648571630887   -3.45585280910329   -0.23640596854209
O           0.18661042530325   -0.93624992294415   -2.37156406531008
H          -0.12747369769020   -0.04830811809382   -2.12616276683130
H          -0.30107618497967   -1.55421310847059   -1.81131744332573
O           2.17861477047796   -0.29634571440055   -0.66021770089800
H           1.55072107191212   -1.04949381701159    0.56322658500871
H           1.66243100169079   -0.61975073137300   -1.42781639704961
H           2.13652033038031    0.67603962401045   -0.73070500762794
O          -0.48358464550445    0.12035896306657    2.58414169219835
H          -0.10095725597882    0.94830633814026    2.22550922376741
H          -1.49272387091068    0.00431414075451    1.43074152575753
H           0.16159362937389   -0.56511160797858    2.33206926118176
N          -1.99129598014718   -0.07379691268309    0.47450159650765
H          -1.87862875117716   -1.04125949678253    0.13708545909587
H          -1.45167279124929    0.57499839099628   -0.19143149589647
H          -2.96681476179448    0.19538946961882    0.52661929806443
