    26
        -50.46983305  Gyration_radius:  2.43234050135 Dipole_moment: 4.338
 S          -0.44139053704686    1.54046680785096   -1.29039397772118
O          -1.54505553292531    0.98779125379908   -0.48789351591909
O           0.40333797462050    2.40004972999546   -0.48891736983448
O           0.25147081863278    0.50833319128824   -2.01839209550929
O          -1.12403539073335    2.48102806908624   -2.36662076046384
H          -1.20882390937613    3.29951185295848   -1.88885548097866
O           1.65743233876737   -0.82200158586149    0.97708604702806
H           2.26703985567853   -0.25326502360713    0.46284775151947
O          -0.84142591367817   -1.62035438880951    2.49056158833320
H          -0.78118622180372   -0.65760065266636    2.59123394260640
H           0.06896131007274   -1.92335210009411    2.40408055773261
O           2.69115238642228    1.01228549869022   -0.70041467603601
H           2.53424529002949    0.63937609566641   -1.57219358120869
H           1.95720713686319    1.64213188250420   -0.57341710334850
O           0.59307222783661   -1.99978811501767   -1.17184100083589
H           1.12136561056090   -1.74733655414695   -0.37860160386870
H          -0.80730284531889   -1.94265154880689   -0.57642338995955
H           0.55047066731055   -1.17505494744173   -1.69511361760987
O          -0.26583753182255    0.99543253441040    1.81654914086549
H           0.24575267362980    1.80899189951303    1.82240618265556
H          -0.80925631280310    1.05818564594859    1.00211187424820
H           1.00751659427856   -0.19190295600045    1.33562502148042
N          -1.70021331822911   -1.61575935127189   -0.05381444460739
H          -1.77926619736542   -0.59015384849672   -0.27668004116661
H          -1.51479307894672   -1.71297015281475    0.97641132274477
H          -2.53043811464862   -2.12139323665490   -0.33934076013925
