    26
        -50.47399123  Gyration_radius:  2.38942621199 Dipole_moment: 4.400
 S          -1.40758005587402   -0.26700225778808    0.09799924775312
O          -1.93157412386426   -0.56656535923768   -1.20452279031493
O          -1.09487085940391    1.16936655638651    0.24112161356932
O          -2.47488666059830   -0.60770600652955    1.16612109916528
O          -0.20463717220867   -1.05385815041549    0.41256773436302
O           2.09886614765094    0.33360601103012    0.54532431987271
H           1.39583173617718   -0.34513923256843    0.52451367368099
H           1.87554210083757    0.88937359688207    1.30470403319703
O           0.63607681961320   -2.55569372526745   -1.64661690406332
H           0.35230787996382   -2.07048706066443   -0.84639383798703
H          -0.00363080315945   -3.25913112959964   -1.76899623243577
O           0.37547935325583    1.69710526140415    2.32018144555863
H          -0.21614370998820    1.55377799942735    1.53794918339086
H           0.09533594054546    2.51900301037683    2.72542033743401
O          -0.04624215777950   -0.40505498855933   -3.07619343493973
H           0.39131775969931   -1.23657705909244   -2.79329422120295
H          -0.90499560549128   -0.44025554309080   -2.60596467646761
H           0.60137454186301    0.71508376833077   -2.25441904896603
O          -0.67237756293557   -0.72978489146574    3.03599578744080
H          -0.19802404011703   -1.21272689310289    2.34412804292612
H          -0.24996056432585    0.14812489229373    3.06302693499780
H          -1.95779854465891   -0.64964037756301    2.01137928227417
N           0.84984880864713    1.44688570334525   -1.49686843335406
H           1.12095111043969    2.33559564261755   -1.90295704683138
H           1.58174336832369    1.06398430003611   -0.83765890749130
H          -0.01195372661669    1.52771595282918   -0.89654722156474
