    26
        -50.46983302  Gyration_radius:  2.43227328048 Dipole_moment: 4.339
 S           0.29635616911381    2.00986233113467   -0.32336416731437
O          -0.77864858557255    1.62159232938384    0.60454026048466
O           1.59497186238413    1.87746509806324    0.30176514144381
O           0.16016335978547    1.34952359313283   -1.59645304402271
O           0.09566141385359    3.55869209465118   -0.58700238054680
H           0.56497894205616    3.94694279689220    0.14392994775613
O           1.04260211283695   -1.80399912349835   -0.18457264768928
H           1.77244980605527   -1.35609440495897   -0.66016331542705
O          -1.18543162037550   -2.18762801043424    1.82902219330262
H          -0.58020956027968   -1.55097750881246    2.24008983032429
H          -0.63068295799203   -2.73564653445218    1.26334586454770
O           2.63708138552908    0.02984151138883   -1.34307389856285
H           2.15722293176801    0.28147715529316   -2.13689853718826
H           2.41687412307312    0.72799844389768   -0.69851918515405
O           0.63885864402356   -0.11955424011521    1.98511199382380
H           1.51151010043041    0.27341128592683    2.07306284666253
H           0.10056182379523    0.58153870923862    1.55934492162893
H           0.92779728999480   -1.26267625400153    0.61650227410839
O          -0.83304567784954   -1.10186518709456   -1.95321327765505
H          -0.48976734508216   -0.19367706098567   -2.06830991089003
H          -0.13341765288239   -1.55173920885672   -1.42399216037752
H          -1.83987901390964   -0.80681824483279   -0.84966633907290
N          -2.29535448980827   -0.47940871839233    0.07915393583238
H          -2.03126544421482   -1.17577289908011    0.82107357519410
H          -3.29939626913679   -0.36527849909256    0.00609993891387
H          -1.81999133757657    0.43279054559250    0.30218613987809
