    26
        -50.47000866  Gyration_radius:  2.46291995941 Dipole_moment: 2.584
 S          -0.01498729966690    2.20775879984382    0.19791038478804
O           0.03947257562006    2.65189939940702   -1.17260566933720
O          -1.27343037565420    1.61177769025586    0.58181378570353
O           1.11566534448868    1.34824395009373    0.57559882773827
O           0.18139199605388    3.51135035899996    1.09232240018860
H          -0.31096381926009    4.15731653518755    0.59707214557367
O          -1.51389619210478   -1.79274025059627   -0.92337071521133
H          -2.10569591810580   -2.21525024946246   -1.54691447931617
O           2.13891859019876   -0.18877356093819   -1.29680594410256
H           2.94791083297338    0.19013768024842   -1.64253085910047
H           1.81324167996613    0.43612008142889   -0.60586468265729
O           1.03151546322099   -2.42106619801959   -0.08959819653658
H           1.54717178248972   -1.79465932044748   -0.62405536983440
H           0.12780085756633   -2.39487006243548   -0.45536543736514
O          -0.44833396592566    0.24300181837649   -2.17946571431036
H          -0.45104381100127    1.17008808931226   -1.87559803871500
H           0.48758012969109   -0.01085022106484   -2.17005466331141
H          -1.19500700712154   -0.96337231810579   -1.37051044111754
O          -2.12605809863970   -0.70763695416435    1.52117597239245
H          -2.12039821532005   -1.20934382124622    0.68582025683706
H          -0.62570308821559   -0.83256569302563    1.92495438216366
H          -2.03745193960880    0.22525666827741    1.23787109635796
N           0.44840898640938   -0.81810500852420    1.92652977543692
H           0.73410681858778    0.10651225131283    1.50956315711408
H           0.77300593470243   -1.56801076265842    1.24828047210132
H           0.83677873864429   -0.94221892208138    2.85382756453452
