    26
        -50.46983305  Gyration_radius:  2.4323106862 Dipole_moment: 4.339
 S          -0.13468688997684   -0.72549927284691    1.92040648353644
O          -1.51118994343638   -1.07914504072714    1.64651852260206
O           0.78133973321180   -1.41342818457061    0.99575134361449
O           0.13426156194871    0.68870883010619    1.97621442722652
O           0.18767408789228   -1.31029267942195    3.35676152303710
H          -0.35376987387191   -2.09241502713939    3.37790674519078
O          -1.10998820290662    1.17145912257204   -1.33139540358966
H          -1.74213349639176    1.41237661450860   -0.62293353674445
O          -2.42579274233343    1.36247110029901    1.00934906512447
H          -2.25437034413949    0.43527684716628    1.25921220606080
H          -1.82994613026493    1.87113423729816    1.56594786588097
O           0.80117457553162   -0.54866985824154   -2.93129741060428
H           0.18319814756738   -1.17256561254691   -2.51959650079325
H           0.29751148174142    0.26348043469683   -3.05305409397248
O           1.02428173498322    2.16027243077506   -0.06477801658377
H           1.88869167268813    0.97886559091786   -0.48330275251057
H           0.23484024714404    1.99861162513885   -0.63290731946570
H           0.75243721695215    1.82426008264480    0.81218768124269
O          -0.90676748317038   -1.58001933850269   -1.02164120129722
H          -1.07344111018823    0.19978005003742   -1.28210676916699
H          -0.27679035578081   -1.62134676850293   -0.27068467096250
H          -1.75941750789957   -1.78021118876137   -0.62600100529946
N           2.23310848778008   -0.02220411617590   -0.72143866811327
H           1.83195994784831   -0.27768263164026   -1.65898301890217
H           1.78510239973207   -0.63799340746790    0.00502266783417
H           3.24271278533977   -0.10522381963941   -0.70515819338314
