    26
        -50.46983302  Gyration_radius:  2.4322818905 Dipole_moment: 4.337
 S           1.00105067192894    1.54356103838760   -0.92071594331983
O          -0.13307070506010    1.89251580228112   -0.04923153138075
O           2.16911006691863    1.19776098394772   -0.13917526423085
O           0.62298737281727    0.57472913666062   -1.91763934190186
O           1.37258873836264    2.87537868411681   -1.69357248251880
H           1.95691235905085    3.30471151104947   -1.07754069129821
O           0.31705262760810   -1.99754867602504    0.53358491912784
H           1.15523629423494   -2.02010542014497    0.02708769152877
O           2.45638675106087   -1.34068998933272   -0.96251967648809
H           2.09295280994758   -1.23037065971358   -1.84532361704402
H           2.50949037713491   -0.43278657485854   -0.60982795215158
O          -1.88052448882600   -0.87479778734964    2.28767114177001
H          -1.56698151862863   -1.73887218064864    1.99925209240267
H          -1.08206188592174   -0.38437169761576    2.53783513254595
O           0.57018406358622    0.36042304680464    1.97712070937496
H           0.31858237354371    1.01098377487259    1.28724060908832
H           0.41335402221356   -1.20905748496698    1.09657053912507
H           1.52661693215485    0.43486523092605    2.03457888929155
O          -1.19305414884591   -1.35087900583938   -1.57355432789494
H          -0.69886553681302   -1.80113363812326   -0.84894307790528
H          -2.01484669230023   -0.36721989722546   -0.75109414318683
H          -0.54547269525341   -0.71457057410762   -1.93627021397216
N          -2.31219091603331    0.39516543950245   -0.03870399040258
H          -2.31157008487587   -0.04812714472433    0.91453507633881
H          -3.20719872953422    0.81428834019688   -0.26180800418326
H          -1.53666805847392    1.10614774194323   -0.06955657271020
