    26
        -50.46272424  Gyration_radius:  2.48181480246 Dipole_moment: 6.101
 S          -0.20822894120602    1.12139037523949   -2.04257416063485
O          -1.35505563464074    1.35555610826953   -1.20005554419652
O           0.82096329052148    2.12807667389000   -1.99399205642324
O           0.31471221290963   -0.24136531678780   -1.82292917414952
O          -0.72922616201458    1.12094466759649   -3.54909733871552
H          -0.02493866500253    1.59373570040249   -3.98010440416285
O          -0.10847498491130    0.65769807382675    2.26847253250577
H           0.04131067455485    1.17661067359305    3.05992255309027
O           2.42307551578397   -0.79002085140490   -0.19617465029913
H           1.80004638362948   -0.65554241045058   -0.93174560393088
H           1.95308469357548   -1.32813046539621    0.45432711010794
O           0.65352688423512   -1.86683395996022    1.80294440492726
H           0.95251192438589   -2.29982906552580    2.60305277537747
H           0.39820257517098   -0.94715870288404    2.05109317660239
O           1.50808324083350    1.64718999615659    0.53166357314449
H           2.07643562540513    0.87354508498264    0.33512555783365
H           1.23529483384459    1.97784899101812   -0.34498269917654
H           0.45594011940325    1.09447895491699    1.55480473684156
O          -2.45511049988905    0.25611825012293    0.91240241332711
H          -1.76482320465419    0.49297198541994    1.55818716078767
H          -2.26784414773641    0.83443790936028    0.14359045971563
H          -1.81229326351151   -0.96641821322118    0.23855297857077
N          -1.15469984199394   -1.67386456377531   -0.24746849821638
H          -1.66456385251988   -2.41717319037664   -0.71045549142088
H          -0.50421541192112   -2.04076004804388    0.46296464699176
H          -0.58371334425259   -1.10350665696804   -0.95752444849687
