    26
        -50.47000797  Gyration_radius:  2.46295945714 Dipole_moment: 2.583
 S           0.30622914833956   -2.18827327013295    0.17824411030179
O          -0.92286065034545   -2.72759017886585   -0.34801738906482
O           1.16827396720856   -1.59085707348386   -0.81481650935084
O           0.10307959685378   -1.28301803449199    1.31782651654031
O           1.09597583915387   -3.42072645983010    0.80719354818278
H           0.91178743676599   -4.10746404662147    0.17533836491898
O          -0.26691342738129    1.69422189067063   -1.84865588158557
H          -0.59123568391829    2.05983838033525   -2.67248756384289
O          -0.66624033180339    2.42776825449891    0.77312170912396
H          -0.59836687862557    2.35919850926124   -0.19731152161780
H          -1.33645976370465    1.77468727213776    1.03439958105047
O          -2.10995876588411    0.13731249499892    1.35078946156105
H          -1.31294407414407   -0.44340648235035    1.38820417432782
H          -2.75263215087018   -0.24900825419050    1.94687477086230
O          -1.74678256755784   -0.40548941457052   -1.33881896305699
H          -1.42182717199342   -1.30878998276315   -1.16459049150039
H          -2.16194196102043   -0.13380629504413   -0.50558647724847
H          -0.76146509881076    0.84142048238464   -1.71646003734186
O           2.25536430564590    0.77299890332787   -1.28428301054181
H           2.01399004507680   -0.17572920714094   -1.28323941712641
H           1.47522235443108    1.21434909786139   -1.66654886078167
H           1.95477017169055    0.95454924417527    0.23456456274198
N           1.48733327799473    0.96041480406997    1.20166712021583
H           0.69517008425713    1.66650922182185    1.16294425800555
H           2.14311573624329    1.15678453229575    1.94834819087344
H           1.03931656238295    0.01410564162684    1.32129975431793
