    26
        -50.46983303  Gyration_radius:  2.43224750804 Dipole_moment: 4.339
 S           1.72911140813760   -0.85820506116224    0.71087464373232
O           0.93463139873358   -1.97472941149889    1.17661589039795
O           1.60207068608445   -0.69113162583158   -0.74631917003892
O           1.50682733504340    0.38351031529769    1.40663531708285
O           3.23944552989591   -1.26202757239468    0.96553783804355
H           3.21554968853544   -2.20518188165321    0.84253122577743
O          -1.97065842295190    0.33485630608694    0.61669622973272
H          -1.75826729341159    0.03352111893729    1.52426071202125
O          -1.88383757846773    0.43025689862607   -2.40839439710412
H          -2.45760158072507    0.74049077492212   -1.69941716126532
H          -1.66663251275010   -0.48645777498494   -2.17795441183529
O          -0.72439836533454   -0.62728493297249    2.80015505651557
H          -0.11812396066375    0.07651042591194    3.04656967870995
H          -0.17305442848055   -1.25226401577505    2.29327935012628
O          -0.16689088860303    2.30586630257969    0.61460341818908
H          -0.97425293986831    1.74380251053587    0.67994893113389
H           0.52214299222612    1.77614744783176    1.06231077055375
H           0.23936863985787    2.00629223280113   -0.82212564769701
O          -0.83948768842729   -1.66465583586492   -0.94268260288496
H          -0.86890140076532   -2.40672199413863   -0.33268712904729
H          -1.63808088421168   -0.38693246631357    0.05427939233207
H           0.09929742705687   -1.37996608688178   -0.93112037304971
N           0.49152956209735    1.49147655431236   -1.74333352428141
H          -0.40717173329167    1.14846780676198   -2.16748362444417
H           1.04941287385443    0.65341005830608   -1.43639240138869
H           1.01797212639615    2.07094989655661   -2.38638800129216
