    26
        -50.46983152  Gyration_radius:  2.43225410832 Dipole_moment: 4.379
 S           1.53488354983008   -0.94457879030414    0.99207462771292
O           1.58113067670283   -0.93623681357786   -0.47961331379474
O           1.92437963517411    0.34114368884269    1.53028715364231
O           0.28013482493626   -1.45732748466758    1.47952227243649
O           2.65445905876459   -1.96780006893484    1.44847855214261
H           3.43793686542994   -1.42831142485215    1.42716113305978
O          -1.47266871581018    1.44159520211631    0.36801726707696
H          -1.26460033661568    1.43760698025506    1.32525680266353
O          -0.97884952295342    1.31071282591865   -2.61864447033586
H          -1.67271713494266    1.61267865590265   -2.02251428061047
H          -0.15223259304686    1.64749084337540   -2.23921886085653
O          -0.37069695003012    0.95983687412931    2.77635674882225
H           0.53069798667192    0.85297297796560    2.41910678582577
H          -0.65074598759319    0.06424486606917    2.98351613156232
O          -2.07719881724692   -1.15826316784930    0.26421031069254
H          -1.34141910071087   -1.42871264060990    0.84838558456878
H          -2.07813955943420   -0.17436604300610    0.32868655053058
H          -1.35960053922893   -1.32761647874860   -1.06758961085943
O           1.05111268792648    1.62899399356212   -0.77385599646375
H           1.33843504051439    0.69303980479368   -0.71091554212185
H          -0.60409837015986    1.57168076305782   -0.05219608767860
H           1.53311526364347    2.07162749210634   -0.06998787391968
N          -0.64175474316602   -1.24841215869334   -1.87757239470773
H          -0.71151317217998   -2.01112646526813   -2.54079000130377
H           0.29718606614396   -1.23728540347382   -1.40222707625448
H          -0.78723610261670   -0.31358802816797   -2.33593445184310
