    26
        -50.46983299  Gyration_radius:  2.43221700032 Dipole_moment: 4.342
 S           0.26544263700937    2.02338920708464   -0.25928782424104
O          -0.96609135945955    1.42416756998636   -0.79944747415071
O           0.18114965741458    2.17681586189340    1.17741140566444
O           1.43960216030560    1.33657010356312   -0.73364630624864
O           0.32274463590425    3.49122141758690   -0.85175637831191
H          -0.20812637428154    3.97664022259910   -0.22904352055812
O           0.68910128320595   -1.54152682414078    1.23467838603913
H           1.36924371816406   -0.95289222088587    1.62269700611293
O          -1.97677165961397   -2.37105881915678    0.06383965106023
H          -2.17712536480814   -1.61579661119460    0.63836756790450
H          -1.20711589018862   -2.79357074407598    0.46037046463268
O           2.22455882616915    0.57785698331256    1.86446313570299
H           2.76181907517130    0.71282532095545    1.07915865659463
H           1.49594082997824    1.21945892174717    1.76975998536221
O          -1.59001693023583    0.03966917190782    1.35482704522628
H          -1.44710403456686    0.60534406183836    0.56606021206187
H          -0.13359176304369   -1.02900236716570    1.32641768722462
H          -1.37407028312888    0.61061907025396    2.09713878596068
O           1.57538322155348   -1.27414993065048   -1.27169068224501
H           1.74467671243905   -0.31485780888860   -1.18837629986430
H           1.37884152198333   -1.55865630517401   -0.34841931330805
H           0.15774974704774   -1.18944108596219   -1.82174520773744
N          -0.89471322591542   -0.95721038352895   -1.94627993277950
H          -1.43261850465422   -1.57360415543153   -1.28599547080223
H          -1.20964585184751   -1.06039982456093   -2.90369191116397
H          -0.98926278461114    0.03758915808622   -1.61580965813217
