    26
        -50.47399128  Gyration_radius:  2.38941948502 Dipole_moment: 4.403
 S           0.42586567097684   -1.29255983918677   -0.45771548271473
O          -0.14514283402954   -2.71276113969775   -0.68844558212190
O           0.59645860615060   -1.12621762667674    0.99988965112080
O           1.67527318470354   -1.16792242903432   -1.15368394877727
O          -0.58031735809942   -0.33142867240707   -0.93619961260097
O           0.39317026639961    1.39166516178794   -2.74896868172450
H           0.55929574567830    0.89804689366484   -3.55385191944257
H          -0.03229861818089    0.76381938175737   -2.13170750138298
O          -1.64867952395447   -0.75979687371792    2.26007189327772
H          -1.63631537308055   -1.21837760163911    3.10134195282531
H          -0.77161364581246   -0.93401812563876    1.83242549819431
O          -1.24816108597534    1.62072581123571    0.79378786072459
H          -1.13688126875224    1.02515803863569    0.02685870284008
H          -1.64270397499330    1.06239552014463    1.47793703788125
O           2.54155281011470    1.34874677826239   -1.16238612966492
H           1.89554845278630    1.52157908363921    0.21686397220220
H           2.48695367579427    0.37214803475352   -1.21727905675639
H           1.86970930882378    1.64145267638075   -1.81491114342739
O          -2.54138505811909   -1.93440312886217   -0.04724984115095
H          -2.48238247260020   -1.59903228011833    0.86595060089700
H          -2.28837841680223   -1.18426650959278   -0.60424764185680
H          -1.09997391834012   -2.62759090315757   -0.43414200998131
N           1.35726494414806    1.37957416402617    1.14489095591302
H           1.22631474373743    0.33805841104847    1.23282107138241
H           0.37166661007085    1.75193960119104    1.06219223357796
H           1.85515952935632    1.77306556322031    1.93575713075715
