    26
        -50.46983302  Gyration_radius:  2.43236048069 Dipole_moment: 4.341
 S          -0.08818253776349   -1.78368974312420    1.02187311742728
O           0.96406083132939   -1.29401057549244    1.88657240887267
O          -1.26972893759444   -0.90728220234494    1.07963085345572
O           0.30965340014980   -2.04585228054680   -0.33763997596281
O          -0.55093337628485   -3.16721534871606    1.63890322256034
H          -0.42045357560203   -3.02174406178481    2.57004708027386
O           1.43361545449343    1.30956818200967   -0.77946915689925
H           2.14870218160274    0.66461557910689   -0.60006071372645
O          -1.13893157782123    2.84885084444386   -0.35096785945072
H          -0.84187559085709    2.59981283690957    0.53806556401669
H          -0.33339310582073    2.93434034479646   -0.87240566016069
O           2.83566543910308   -0.84687607007320    0.01517578092263
H           2.28238573552675   -1.00158809820270    0.80347944654840
H           2.56685560104427   -1.53405307206436   -0.60064505012047
O           0.05046867548356   -0.33349603384398   -2.36844741239145
H           0.64756105203094    0.34720831170481   -1.97830814060901
H           0.19600223061683   -1.12011125060492   -1.80639269097865
H          -1.27516070922609    0.11215993855953   -1.76622247292671
O           0.03942317523518    1.31549314090303    1.62101732513544
H           0.96845564217644    1.37549476343911    0.07333775783232
H          -0.49572084394138    0.50070798111492    1.51041210370967
H           0.73468668414494    1.06002829781843    2.23339656196227
N          -2.04515073203107    0.42491279718332   -1.06862456501670
H          -2.98189997727740    0.28905157265537   -1.42988040985394
H          -1.85897416689961    1.43048631337991   -0.82512100248372
H          -1.87713100179589   -0.15681219722647   -0.20772612213751
