    26
        -50.47001088  Gyration_radius:  2.46308459068 Dipole_moment: 2.613
 S           1.07081518942091    1.43791014238256   -1.30302741511364
O           0.93539382326874    1.91575047876486    0.05278828742407
O           2.31419283912504    0.76043886500399   -1.57583797860395
O          -0.11238320378826    0.66765052708775   -1.71220897623986
O           1.04900739648090    2.71202629437824   -2.25946591890594
H           1.97115936608619    2.94445674972746   -2.28414005418496
O           0.27886581536892   -0.97637328598782    2.30888829704721
H           0.73677479480583   -1.37018350784374    3.05236476991214
O          -1.65636546667447   -1.95295995790001    0.61445211296160
H          -1.02572844858694   -1.76866407787884    1.33518771200185
H          -1.11110574121896   -2.17729162514639   -0.15776289165479
O           0.04514007061556   -1.95302232654461   -1.56976203815438
H           0.19836060701297   -2.33096969824131   -2.43649354245793
H          -0.00133696999820   -0.97551756076876   -1.69793641490953
O           1.92515671673445   -1.10482366566741    0.27587131929892
H           2.20939738723529   -0.35591087760788   -0.28084620783461
H           0.94504058341133   -0.93247758783528    1.57161260393096
H           1.42229419456596   -1.67551552487181   -0.32568920671972
O          -0.71256608746187    1.57308746709475    2.09135687727501
H          -1.65136887076760    1.08326501144468    0.94727482224145
H          -0.36838747654555    0.71802941173104    2.40745315687332
H          -0.02315610431206    1.89228639570027    1.47403251760720
N          -2.05298844274275    0.60183554935044    0.07505359278295
H          -2.08436782773876   -0.43990824033267    0.27834337890924
H          -1.34327710238172    0.73596573419569   -0.69228689629423
H          -2.95856703191084    0.97091528979023   -0.18922188718040
