    26
        -50.47001089  Gyration_radius:  2.46310743411 Dipole_moment: 2.614
 S          -0.88889203790632   -1.63789566734414    1.19982938107340
O          -0.71413158547563   -2.79089011498867    0.35168771643014
O           0.33295236250158   -1.12908447177890    1.77704781785881
O          -1.66075677133393   -0.56053692341232    0.56395434490987
O          -1.81769816349009   -2.11758590646389    2.40233595313115
H          -1.53628189011759   -3.02000115459910    2.50900708550285
O           2.28367590491242    0.64744981890902   -0.85481492303571
H           3.14406666172801    0.52395828511213   -1.25734552077727
O           0.05132165515104    2.02945270748065   -1.67674712562523
H          -0.48743085515272    1.29707046042480   -2.01934979786140
H           0.93963086101870    1.65433476515921   -1.53047132092049
O          -1.42956627684775   -0.28136678350762   -2.04014403461425
H          -2.18780260503703   -0.65558092991750   -2.49024452864474
H          -1.58258379579852   -0.42177962860806   -1.07527606379800
O           0.92741364792193   -1.54344385925008   -1.32439824851903
H           0.48705294757796   -2.10125298514468   -0.65621101045689
H           0.20118525627002   -1.19252494980458   -1.86278341223855
H           1.81375245577907   -0.22456188977319   -0.94459303648546
O           1.70312086183608    1.13204939495671    1.78290265783331
H           0.31662923624317    1.69682564492995    1.34776621039798
H           1.34984921256681    0.23851768083706    1.96982560008748
H           2.13035611945639    1.03922753939046    0.91203409245794
N          -0.63205073062579    1.85077153251300    0.86806949100041
H          -0.43436274871657    2.09823028254884   -0.14545983994738
H          -1.19285615546891    2.55357650876747    1.33466028984019
H          -1.11659358698555    0.91504061356714    0.85871823241543
