    26
        -50.47001080  Gyration_radius:  2.46321332769 Dipole_moment: 2.612
 S          -0.89919371083389    1.41118764850839    1.45381205674920
O          -1.76862798090736    0.29807024579062    1.15391061518010
O          -0.08041755733899    1.23027425242252    2.62685101425147
O          -0.13238922117098    1.81663148016353    0.26700364658635
O          -1.82746937261887    2.66955458815187    1.75925281480495
H          -1.97419028834352    2.57218327980618    2.69411415102155
O           0.26203820104954   -2.49707818908377   -0.24379982948243
H           0.44831315532499   -3.39646446004650    0.02811633292211
O           1.55005726035999   -0.79084246523104   -1.97649834005364
H           2.03472671736746   -0.23630422396091   -1.34272454934840
H           1.20813181364078   -1.54276499484909   -1.45815202655163
O           2.33070631200486    0.92246239922310    0.05272588988306
H           1.43527374013040    1.32419393133037    0.15732019821058
H           2.96063425874936    1.60191207696161    0.29581079900835
O          -2.17427199483742   -1.38610601368237   -0.84367421412012
H          -1.42834303250892   -1.98912284616192   -0.67188966485466
H          -2.24276456795247   -0.85468259834250   -0.02454912458819
H          -1.43798264767435   -0.25953303527311   -1.63099450386366
O           1.11494430094406   -0.94946957644907    1.68953310167127
H           0.58976556561091   -0.27467040873386    2.15906058691115
H           0.49071569000814   -1.92428266116455    0.53649852819681
H           1.79945489719638   -0.44300477649522    1.22549911842888
N          -0.75031633969592    0.50603744647375   -1.93869075346343
H          -1.09129029583707    1.03794811012770   -2.73049495243920
H           0.17796128710495    0.03126083614729   -2.13982652048395
H          -0.59546622975363    1.12260996455002   -1.09821436461465
