    26
        -50.47001090  Gyration_radius:  2.46309624922 Dipole_moment: 2.614
 S           0.28792059166958    2.07688334308074   -0.71836206522598
O           0.47688188771497    1.95311514522811    0.70777614713898
O           1.50142097749088    1.98579559470088   -1.49192588709202
O          -0.77131640299479    1.17366575519074   -1.19063170061232
O          -0.29738814700394    3.53286654463394   -0.99469056222979
H           0.50086267746613    4.04062269639559   -1.09412776909682
O           1.17567149075959   -1.60981380496038    1.54643058941724
H           1.91272435477613   -2.07961143646785    1.93835408173046
O          -0.93397082821912   -2.46178319297348   -0.00034732077575
H          -0.61786246344998   -2.20001292551508   -0.88100062387537
H          -0.16630581853969   -2.36275062769513    0.59301987574412
O          -0.02683229287089   -1.11722898107452   -2.24416657418991
H          -0.07232069471206   -1.08179156828843   -3.20032155622616
H          -0.31647774709137   -0.23128998242820   -1.91961907592940
O           2.10351343886447   -0.44704808221341   -0.60931154552103
H           2.03755960230082    0.50217350026257   -0.82414537466356
H           1.55712211829431   -1.08691619516128    0.79123429269753
H           1.57355620740872   -0.88672729558026   -1.29213167341310
O          -0.35051583527017    0.37816964634947    2.66362823188841
H           0.03162957086161    1.10455676448599    2.13029240501737
H          -1.46924928333181    0.06967787791954    1.62254304206808
H           0.24689977295312   -0.37406012718315    2.49989242415711
N          -2.00799308444332   -0.15969352049464    0.72200919049836
H          -3.00746381872218   -0.03052316075038    0.82453642910381
H          -1.75439515575230   -1.15424189883964    0.44971493167387
H          -1.61367110815698    0.46596591139664   -0.02864990229040
