    26
        -50.47001087  Gyration_radius:  2.46308485083 Dipole_moment: 2.612
 S          -0.55299318361724    1.27133880732256   -1.72914599712092
O          -1.59979812229451    1.19925081134621   -0.73715708840726
O           0.32516375167048    2.40652159202184   -1.58943951314533
O           0.16328508718363   -0.00799632652433   -1.83425728485803
O          -1.25598703800918    1.43565887330730   -3.14956809451794
H          -1.33186969066892    2.38182405375276   -3.21359779959632
O          -0.13447204892073    0.12626352486150    2.51621338684823
H          -0.05963202394568    0.51982287440722    3.38629563232845
O           1.24278379307305   -1.92209703839585    1.30119838050643
H           1.85649353600445   -1.41162072517807    0.74733378677702
H           0.83693666857754   -1.27445088558230    1.90705935973052
O           2.43840986459977   -0.22991817456917   -0.53535032464300
H           1.62509027492634   -0.13497029538179   -1.08634223810693
H           3.18102904443333   -0.12970827968696   -1.13204147183959
O          -2.41963024128785   -0.48745340241521    1.12661241690060
H          -1.59274355605112   -1.48139162518696    0.25528852343016
H          -1.76031327020360   -0.27115383932683    1.81076358070876
H          -2.33876207872488    0.24323233700381    0.48036985370336
O           1.09717193187222    1.74457563142994    0.86549895753773
H           1.80828953837008    1.16762216456487    0.54634583143063
H           0.71983611996563    2.13589829813191    0.05556754739776
H           0.24067764626533    0.79458253460791    1.88230418641779
N          -0.82699848143266   -1.94419750084351   -0.33902502294226
H          -1.15018312055087   -2.78595090395661   -0.80070411993011
H          -0.00001800460565   -2.12628130850954    0.30173277086113
H          -0.51176639663081   -1.21940118715215   -1.03595526947535
