    26
        -50.47001087  Gyration_radius:  2.46310466315 Dipole_moment: 2.612
 S          -2.09664469978505   -0.68155129532062   -0.22639610522327
O          -1.94880166118601   -1.99702153780205   -0.79803428961357
O          -1.69318843180407   -0.58130116330062    1.15638894788207
O          -1.47521167318440    0.37678009658058   -1.03536018610338
O          -3.65389512123958   -0.35021153885559   -0.29129523140451
H          -4.03509760384964   -1.21125762552040   -0.15633526558919
O           2.02717185279379   -0.64721266967014    1.35498595401131
H           2.67218775726566   -1.23087827896080    1.75606725237477
O           2.23832737542003    1.22510262725539   -0.64985811747601
H           2.37182718256571    0.57663803705750    0.06627548521326
H           1.87948249890683    0.71791248061411   -1.39682486542607
O           0.68246981641687   -0.25345618604537   -2.39911474942086
H           0.47101394580961   -0.39391186940834   -3.32274715725477
H          -0.16686062771726   -0.02367117664921   -1.95198477874543
O           0.66683980389523   -2.10599409627110   -0.34282968034310
H          -0.30339280634121   -2.20366965075299   -0.36830975012037
H           0.88678522067690   -1.66222573386716   -1.17656911383129
H           1.44761185958589   -1.22790808174925    0.79281992988175
O           0.04808605347085    0.79405297948673    2.59403270165326
H           0.84607529654116    0.27794477318758    2.37858168222356
H          -0.01814186110529    1.72687852026446    1.34670508265012
H          -0.68971027718396    0.22853913650570    2.28752824496545
N          -0.04235543455372    2.11159993077167    0.34407180972972
H           0.91586152613724    1.94100030242207   -0.08047347748667
H          -0.31157288541392    3.08754486543312    0.30968692760391
H          -0.71886713610796    1.50627715457713   -0.19101125015162
