    26
        -50.47001075  Gyration_radius:  2.46308201936 Dipole_moment: 2.609
 S          -0.44731045196022    0.71627878192443    2.04912456596932
O           0.33990323751061   -0.16280613271987    2.87772512571533
O           0.32407559196144    1.66929094876618    1.28635038248087
O          -1.40393987671750    0.00339869456648    1.19053388378808
O          -1.37190185673842    1.54574417777827    3.04719175679818
H          -0.79813101195406    1.64168388312277    3.79984969953348
O           1.99537184700441   -0.09409705023530   -1.54005387674741
H           2.90523747696749   -0.24443244642553   -1.79908427420489
O          -0.71126676612848   -2.38185995443787    0.32799506580280
H          -1.14623763845814   -3.06641567351850    0.83764530670625
H          -1.01422339882546   -1.52120795329796    0.70423436810161
O          -0.34482473379900   -1.36953852850445   -2.22288775347744
H           0.56105243460720   -1.01593432707788   -2.14869343838894
H          -0.47186711385312   -1.92702762249657   -1.43736241027540
O           1.71897947156982   -1.15899081834930    0.83697043570182
H           1.05698535948875   -1.84267905483736    0.65053872167424
H           1.92591874647572   -0.40549039407039   -0.59805208550378
H           1.38394917971621   -0.70727546989272    1.63403961986905
O           0.69220303939115    2.30360201405947   -1.25353790645855
H          -0.66666445251403    1.55243359694306   -1.39297133578388
H           0.67224956232239    2.28644151521396   -0.27499107696546
H           1.30836908922387    1.58648420280260   -1.48939388113346
N          -1.46710109778298    0.84072769160481   -1.31138574866964
H          -1.54400574805156    0.59487717496145   -0.28953872916199
H          -1.15391669607350   -0.04216702978512   -1.81124652011988
H          -2.34290417337205    1.19895977390253   -1.67299989525519
