    26
        -50.47001085  Gyration_radius:  2.4630652894 Dipole_moment: 2.614
 S           1.85769896310739    0.37856408854864   -1.14784057309082
O           1.88284441622758    1.81611959668926   -1.25740615090339
O           2.12048008338732   -0.12504121506326    0.17969615168560
O           0.64167240587024   -0.22587009074971   -1.71053665989973
O           3.02380651665700   -0.15175478178345   -2.09548922032176
H           3.67161644243704    0.53848067018885   -2.00085817161797
O          -0.87224238617398    0.45373362361846    2.32329085052201
H          -1.04624379782022    0.95813067966877    3.11881661693026
O          -2.54405405482157   -0.55845971299852    0.38702390282481
H          -2.42756432517208    0.11094024717928   -0.30744424731892
H          -2.12723424316505   -0.18280044717468    1.18474349943987
O          -1.58370842234238    1.16571019193299   -1.55516842644658
H          -1.78434423053434    1.57964593542992   -2.39536201312970
H          -0.74296521269749    0.66564238958236   -1.68617981607735
O          -0.05744486922347    2.17241951605507    0.52257968509052
H          -0.75889212439110    2.08242225598115   -0.14097423312158
H          -0.46436601184197    1.09300469368058    1.67971678354095
H           0.77056806094477    2.11886273581946    0.00965613515992
O           0.89502103150281   -1.61787463261967    1.98496751249015
H           0.29180347008500   -0.94036113510057    2.34087808777484
H           0.09161176268772   -2.06420276929054    0.72582070924935
H           1.54631186509252   -1.10507452348719    1.46433403967420
N          -0.46473400539101   -2.08007752235734   -0.19295508481113
H          -0.55920624697580   -3.01437440941437   -0.57281188948657
H           0.04390527176727   -1.44244032270111   -0.86013271085077
H          -1.40434035919609   -1.62534504162818    0.00163522269800
