    26
        -50.47399121  Gyration_radius:  2.38944716958 Dipole_moment: 4.397
 S           0.44213604759101   -1.20440405844350   -0.64557241499592
O           1.36575708635623   -0.07347641694071   -0.86799684924706
O          -0.36072965869686   -0.93882916541690    0.55864782624856
O          -0.37209773678338   -1.45681792959936   -1.80062938175075
O           1.31278449814190   -2.45089567762739   -0.35501017343051
O           2.44722678850223    0.81519586404599    1.32396356068880
H           2.09248759162341    0.48954720439452    0.45764144797234
H           3.36178523203052    1.05583395995607    1.16942636255441
O          -2.99525393297862   -0.81887227163005    0.06045483685787
H          -3.28897428759475   -1.70729929079715   -0.14794211369326
H          -2.05417290479456   -0.89948690728155    0.31372682880779
O          -0.26591969855659    1.58367086832647    1.49396321707295
H           0.67226751592941    1.60388749561079    1.72794430760167
H          -0.45209618678606    0.64135295154385    1.31296301670571
O          -2.19373071027595    0.45227637513566   -2.14785825286218
H          -1.57992434839520   -0.29899928141412   -2.28449865737451
H          -2.74278015725199    0.15043364044344   -1.39269525613219
H          -1.18514549397317    1.44893420142711   -1.56577628282093
O           1.69714639536674   -1.70063451909760    2.10453354713162
H           2.13213742192192   -0.82971889324648    2.05794252207674
H           0.75048188657314   -1.50962465081396    2.03943777049612
H           1.61373624213985   -2.31556115724463    0.58023202789153
N          -0.31770994606248    1.92155208170181   -1.12378416346971
H          -0.08929924223098    2.79752684261177   -1.58063982494791
H           0.45697706288336    1.21274259577265   -1.20778673042450
H          -0.44708945468088    2.03166611858011   -0.08068716093702
