    26
        -50.47001082  Gyration_radius:  2.46308577381 Dipole_moment: 2.611
 S          -0.34304402272062    2.06070413845031   -0.74000909337970
O           0.13913293312334    2.03427628194165    0.62081113578980
O           0.68709835160896    2.22233377450702   -1.73595180828476
O          -1.23506613080644    0.92305669391184   -1.00610400230429
O          -1.29127404109025    3.33340794560512   -0.88223918625349
H          -0.66634815128080    4.00729785769624   -1.12748099199878
O           1.78950739872262   -1.24285555164278    1.27180330399050
H           2.67616278797662   -1.51812151670060    1.50761864898553
O          -0.32231976024704   -2.60877003037198    0.15663549598021
H           0.50071814219037   -2.31588375774745    0.59031508017894
H          -0.24979354789367   -2.31307973810328   -0.76601562453041
O          -0.19657496315217   -1.17250100673492   -2.20741597171554
H          -0.61576343231310   -0.36549406063756   -1.82385377073965
H          -0.43059515174203   -1.18179517517367   -3.13621809968909
O           1.99316822603649    0.02478198715360   -1.01123232073370
H           1.88788515735815   -0.67344097490298    0.46228941008181
H           1.45870355848567   -0.54851286107027   -1.58229618506631
H           1.66955613438904    0.92547107514353   -1.19986300689411
O           0.08858665927432    0.38231001807189    2.68441306081861
H          -1.10660749154158   -0.21053325873462    1.87795356124219
H           0.80094144710197   -0.21877155842878    2.40017773862558
H           0.18311215010247    1.15733572508984    2.09404005877286
N          -1.74019077062959   -0.58878240957222    1.09732178419274
H          -1.32086291526306   -1.50809173313961    0.77098313745278
H          -1.65239496100272    0.08332361573383    0.29047127089388
H          -2.70373760668971   -0.68766549034126    1.39384637458685
