    26
        -50.47399123  Gyration_radius:  2.38943875884 Dipole_moment: 4.397
 S          -1.29155327495189    0.43396222282863    0.45431800441729
O          -0.63357064211423   -0.88025672685545    0.38310205992155
O          -2.14010749253975    0.68230763879166   -0.67671991569114
O          -2.14581428782930    0.45391002907742    1.74503354630298
O          -0.26077015936086    1.48154864942953    0.60126822607692
O           2.02876457904607   -0.83482953550998   -0.01693049052059
H           1.08835400638109   -1.07023065105094    0.10761477842320
H           2.27970333655721   -0.39853990960432    0.80894875583758
O          -1.11340131955228   -2.17295889548684   -1.91946501672016
H          -0.94201301388676   -1.77552877542340   -1.04262452365306
H          -2.03341430797665   -2.44239066936280   -1.91128884364263
O           1.64717861467529    0.82047476627547    2.23997526774055
H           0.92575664954207    1.13501900450224    1.63741480300360
H           1.91849647735958    1.57964384951727    2.75786987668379
O          -0.85533033950559    0.26906025025641   -2.97065765954482
H          -1.49625795901140    0.56346070839940   -2.29068183058647
H           0.42491683410685    0.75414126561470   -2.28178632833360
H          -0.86405558255735   -0.70699566621400   -2.87001604407839
O          -0.33831001533110   -0.88295187205440    3.05092930145419
H          -0.32903255852699   -1.39094042094197    2.22707210577498
H           0.47242544166481   -0.34286817806938    3.02121039382793
H          -1.56984749242968    0.00489639462789    2.41606382110734
N           1.15963687740100    1.11294317712966   -1.57272746468434
H           1.76428845114619    1.81883238281271   -1.97813282788249
H           1.70202382961241    0.30509638176857   -1.16030604443415
H           0.60193331808318    1.48319456953582   -0.75948395079322
