    26
        -50.47001089  Gyration_radius:  2.4631203442 Dipole_moment: 2.615
 S           1.58442118982725   -0.83356972802137    1.30654711653847
O           1.33807671871460   -0.18236217529049    2.56931063940238
O           0.59517655997849   -1.81880523167260    0.93825511781556
O           1.82644105248629    0.10869394603922    0.20453332776142
O           2.97391364589795   -1.59559306055022    1.47256918493917
H           2.94208224587210   -1.84715968390194    2.38943937483795
O          -2.51702059358854   -0.08304761787169   -0.15090987460446
H          -3.42208834659261   -0.05887541695735    0.16188146104529
O          -1.08567679791153    1.62117681820976   -1.76835158922166
H          -1.75850394245049    1.11785876492414   -1.27320678972802
H          -0.58116194977321    2.11097837692330   -1.09786094932413
O           0.57898022369199    2.42133466680155    0.29429083601801
H           1.10948908667670    1.58913701953452    0.28600728739665
H           1.16945050466388    3.11405425612017    0.59266914528014
O          -1.02890048352756    0.77131076279683    1.82806248370132
H          -1.95131048695790    0.14020108493333    0.63608907137132
H          -0.26694065995576    0.30355366781003    2.21808095982592
H          -0.64568646241969    1.56929625806871    1.43208666884054
O          -1.09395107503277   -2.25030227667467   -1.04945816493182
H          -0.11769663965661   -1.27580934803917   -1.77619171846495
H          -0.52513064504886   -2.32769171287300   -0.25662036120002
H          -1.79026838264373   -1.62423495091772   -0.77970330911338
N           0.52816179803038   -0.45387462091780   -2.02325385001799
H           1.07054451315523   -0.62543719994594   -2.86143112085712
H           1.15015890299745   -0.30161017731318   -1.18635264182376
H          -0.08256000642646    0.41077757879909   -2.10648231547883
