    26
        -50.46133373  Gyration_radius:  2.45412979428 Dipole_moment: 4.896
 S          -1.05234515615349    1.44977945334453   -1.13714385444261
O          -0.84369660248641    2.59007963879851   -0.24424014505820
O           0.17014455588238    1.08158376338890   -1.82131701774169
O          -1.67979773092691    0.33535354679195   -0.45890254749723
O          -2.07190198338036    1.93302841003111   -2.24487940496729
H          -1.58200185161380    2.60768127891666   -2.70464042954495
O           0.43848341769273   -1.96276188972579    1.42404973609544
H           1.08969875289431   -2.65498251086228    1.54445210737914
O          -0.62338922513500   -2.05674788527451   -1.19850010111652
H          -0.51747644494380   -2.34850766369220   -0.28284491471573
H          -1.04877354473028   -1.18417765067934   -1.12839366993827
O           1.98780646835842   -1.76802728354920   -1.83501983922578
H           2.00761454033817   -1.20634291275687   -2.61224832177694
H           1.03460936184450   -1.97789269492759   -1.70233925584752
O           1.66128466751904    0.03822851899809    0.06924348692115
H           0.88999304825025   -1.23735998181685    0.93467731044952
H           2.10948190479319   -0.63501319137764   -0.49121267647693
H           1.10291790598872    0.49319279787239   -0.60396044279179
O          -1.54237938054355   -0.23144073256636    2.14925540049737
H          -0.45230383826229    0.86621584462498    2.14318239615204
H          -1.84633360420481   -0.06546193603879    1.23323332813692
H          -1.02511114950845   -1.05090131094460    2.09096165906109
N           0.29224879711539    1.58497022756256    1.83624496454024
H          -0.16862375145995    2.12396883014683    1.02777098582918
H           1.08739415690759    1.07397671859344    1.42564775575067
H           0.58245671740884    2.20155858549821    2.58692346867130
