    26
        -50.46133360  Gyration_radius:  2.45522210104 Dipole_moment: 4.864
 S          -0.11766762323761    2.11115867626267   -0.20305535969379
O          -0.00332326640914    1.49954013504434   -1.51097569261058
O          -1.51720362662156    2.27116921646630    0.19310256213451
O           0.66041848404528    1.43102051480115    0.81062524765060
O           0.47975590702730    3.57029581495963   -0.32294735352636
H          -0.01511361893199    3.94485049214105   -1.04499613034868
O           0.61925032113333   -2.21425920060514    0.87885431965633
H           0.82263741873473   -3.09787839582116    0.56960649189473
O           1.44246140137121   -1.40146575259704   -2.53462681148707
H           1.39932416014893   -0.67961308644109   -3.16438696786481
H           1.92833417714349   -1.03155880852933   -1.76171078370196
O           2.42279514749888   -0.34553272513827   -0.24840611677268
H           1.89396330612416    0.42568789446548    0.02163195064439
H           2.15403225927126   -1.04757495081176    0.35952244589597
O          -0.24819297996525   -0.30670513294296    2.62662491905634
H          -1.53492437238679   -0.24634055066763    1.76944913607836
H           0.19487085634412   -1.10448947378732    2.29539198372512
H           0.20180917451847    0.43343625140847    2.16985409359797
O          -0.74813612719920   -0.98491329743204   -1.11091744544750
H          -0.53441182467809   -0.03174037829279   -1.24373416528904
H          -0.13956254124963   -1.40138938680061   -1.76241525219049
H           0.11991702554855   -1.77364441528339    0.15366979140089
N          -2.24035632775012   -0.07408031647230    0.97092464907532
H          -1.97287921310608   -0.66248803406963    0.16828855978422
H          -2.06511610450770    0.94329857596269    0.66947616630414
H          -3.20268200289537   -0.22678368586738    1.25114975194921
