    26
        -50.46133382  Gyration_radius:  2.45428128404 Dipole_moment: 4.899
 S          -0.84504303955102    1.93257462663577   -0.23027303442251
O          -0.89693408216191    2.29528676707953    1.18643227963270
O           0.51593794057344    1.92621521736071   -0.72606718929897
O          -1.55310640156414    0.69981054682961   -0.50283893072375
O          -1.61384327621960    3.07357136413545   -1.00942577113432
H          -1.07086362788468    3.84016961697360   -0.85444363661848
O           0.20642768528456   -2.45499576033926    0.01662210488830
H           0.84698103776199   -3.14203254012779   -0.17165140407679
O          -0.23694924622761   -0.87211508068976   -2.28794186383925
H          -0.32441699548949   -1.65832589202464   -1.73199524387958
H          -0.71053630510405   -0.17554032844034   -1.80054596841369
O           2.43357259523938   -0.51475363350727   -2.06616584338130
H           2.59894111098159    0.39322333400130   -2.32716644611920
H           1.48629535035550   -0.66976849668477   -2.28682807529456
O           1.60128643974604   -0.16962375499515    0.42097526126187
H           2.19639972421052   -0.41757587894519   -0.32227272240786
H           1.18419819980946    0.64582196365949    0.05611763594398
H           0.72015427771677   -1.62842426204733    0.16664021583203
O          -1.96830941607557   -1.31315649052455    1.20515456654141
H          -0.95988593076364   -0.53557262489231    2.08268291943041
H          -2.06974295180095   -0.60839448180401    0.53278176479623
H          -1.41117141757406   -1.98257788184098    0.77618597691406
N          -0.20227916663736    0.15058952828656    2.43016879146425
H           0.68879969303959   -0.08991769371101    1.97196074869077
H          -0.11790127561429    0.17087077126565    3.44030553622653
H          -0.49801090212597    1.10464105433795    2.03158831802722
