    26
        -50.46133383  Gyration_radius:  2.45431394127 Dipole_moment: 4.895
 S          -0.56277166315968    2.00920613266105   -0.38598302385033
O          -0.93364100810209    1.17087723586901   -1.50747229009205
O          -1.64546410334371    2.10230154956599    0.59394821829224
O           0.69084150089762    1.61860147984534    0.22346400051043
O          -0.35021780053759    3.46970544848766   -0.95340491764010
H          -1.17182709472736    3.64547192525866   -1.40126445967451
O           1.32532116676909   -1.93465872574737    0.75478013827256
H           1.52248700775068   -2.83700442831601    0.50033643480012
O           2.07994149103203   -0.14684343726089   -1.30635539409157
H           1.60140870993694    0.60670590833684   -0.91855104127629
H           2.23374182832526   -0.74438081651139   -0.56198238210984
O           0.38065420667322   -1.69859923932671   -2.72434866097125
H          -0.06948956818728   -1.10869818618710   -3.33219264490512
H           1.08955621409818   -1.14748816724220   -2.31937183437695
O          -0.97625586498708   -1.25142130680802   -0.49829643424907
H           0.48617411106442   -1.69387104235415    0.29931941589024
H          -1.01431651967214   -0.32438829042313   -0.83150510374941
H          -0.66012738428235   -1.72091990095310   -1.30321547072320
O           1.00348931216571    0.17748404539560    2.45236649552979
H           1.06606224304115    0.85764191532469    1.75060656501259
H          -0.51783955707723   -0.05434857416584    2.29698396350298
H           1.38612546485350   -0.62106363592447    2.05436107781826
N          -1.52311907884447   -0.10873779244008    1.90734825153136
H          -1.54227028939178   -0.81187179677621    1.15430601620909
H          -1.68178473319751    0.84369327946104    1.43373117622433
H          -2.21667860094263   -0.29739356970960    2.62239193391284
