    26
        -50.45601945  Gyration_radius:  2.51567265046 Dipole_moment: 5.340
 S          -0.79157230222423    1.77554763683007   -0.84900776421936
O          -1.00969823502273    0.41009528118385   -1.30526688382826
O          -2.06022769449420    2.35272631010920   -0.40586595074435
O           0.25531181692697    1.88081828063982    0.14124544192550
O          -0.30530264885506    2.61026921938700   -2.09984928570880
H          -0.93692610540488    2.41448472839011   -2.78641933484949
O           1.05777251673407   -1.55661197861532    1.63254910329479
H           1.23281064060852   -2.39764892053500    2.05487491325780
O           2.48482217577055    0.32426651000628    0.04744790484142
H           2.20946794666877   -0.26543763486607    0.76376614029240
H           1.78134904145272    0.99352652488648   -0.01218194070149
O           2.43652847297428   -1.48340097332495   -1.92989626554732
H           2.51017670210201   -0.72801197385080   -1.30123833290277
H           3.30434709381047   -1.88725780511244   -1.96107921816355
O           0.05654987419430   -1.97124290811033   -0.73011105081464
H           0.86851589922883   -2.01593277624813   -1.27089657877099
H           0.65696009783328   -1.76306101709906    0.73560364045436
H          -0.33866153200023   -1.11895293372412   -0.99774885278045
O          -0.51433799036650    0.49913721837250    2.29131749568113
H          -0.14320559310761    1.16022965930231    1.67024490159783
H          -1.79750255639300    0.22106051288192    1.56923780010881
H           0.08291295150228   -0.27602430660206    2.20837809465061
N          -2.61062285726934    0.17997806746131    0.83593363981345
H          -3.51099370462643   -0.05915426517785    1.23849632066533
H          -2.33268407699562   -0.45398291180396    0.08251174392014
H          -2.58578990322055    1.15458045562837    0.37795432852773
