    26
        -50.46133387  Gyration_radius:  2.45434888908 Dipole_moment: 4.896
 S           1.62698151169854    1.36065041585234    0.06454488010261
O           2.07533806278498    1.19805460429769   -1.31884008622994
O           0.37593364721869    2.08726746100956    0.13449463756993
O           1.59087149680179    0.10082134798532    0.77667758575047
O           2.71793383437311    2.25152511369844    0.78310940521851
H           2.64986652617588    3.08262254128642    0.32357960094464
O          -1.36681792614146   -2.00463439993013    0.42655003475756
H          -2.28153424083556   -2.25837436387243    0.55557056851786
O          -0.58782080118700   -0.11643832289487    2.38674393148695
H          -0.80531601575572   -0.99785137908705    2.05423342835101
H           0.23522841372760    0.12149412035940    1.92496773140825
O          -2.67391565332630    1.23912488258502    1.33005271728536
H          -2.42021162887891    2.16398585872601    1.34229745094573
H          -1.96964691042883    0.77959513225854    1.84309656328136
O          -1.38891702469629    0.39783855583488   -0.82347697001248
H          -0.69374943482646    1.03164812925457   -0.52855151831161
H          -1.38145740283703   -1.13298081354061   -0.03121206683353
H          -2.14030660268614    0.67216322401433   -0.25045401555167
O           1.24762811274546   -2.32708864104126   -0.28622633759316
H           0.89968641784970   -1.51938416041327   -1.55896784363987
H           1.56810101951879   -1.55734329917439    0.22741438431247
H           0.37491638383086   -2.52596861760119    0.08967514890292
N           0.63765294364980   -0.72715745534135   -2.24367576961938
H           1.29108175518119    0.08552027172240   -1.98045662007737
H          -0.31831377503236   -0.41097636149916   -2.02442035741911
H           0.73678729138263   -0.99411386416669   -3.21672648390000
