    26
        -50.46133340  Gyration_radius:  2.45567814936 Dipole_moment: 4.850
 S           1.71320198890834    1.06639704810716    0.66756367839566
O           1.48690638102623    2.29993912654418   -0.08633820399062
O           0.76739052339397    0.92885759919242    1.75586297527203
O           1.75976508013034   -0.09661931069311   -0.19315339025466
O           3.14802563496301    1.20038026545663    1.31846506701411
H           3.04072334331206    1.92799928568795    1.92310394673789
O          -1.38389207012133   -1.67049597413079   -1.16146430646902
H          -2.18197713391221   -2.18372586217522   -1.02958826670829
O          -1.58349008705315   -1.44392824102727    2.42533754131838
H          -0.81580271161425   -1.84336448410076    1.95466825664252
H          -1.19906834179626   -0.98386102650240    3.17376658052675
O           0.48770803822015   -2.24215498952740    0.88434455089525
H          -0.00238888695504   -2.42041261879020    0.07024164656222
H           1.05844265854579   -1.48518477244155    0.66373621058240
O           0.56515100230517   -0.37792113295104   -2.56730082270329
H          -0.08110319465067   -1.05979421624178   -2.32275457753943
H          -0.14639734398638    0.93361572816166   -2.15710021933306
H           1.20732698807147   -0.36942370550029   -1.82805826776933
O          -1.50995984907231    0.42396955276445    0.55291361853751
H          -1.87912563071889   -0.18103059830202    1.23547177563059
H          -0.65549500723489    0.67690879803024    0.97458358475604
H          -1.43641949033332   -0.90954766111944   -0.53893221542386
N          -0.53078005032241    1.77133703097269   -1.59554648707145
H           0.30698413155743    2.11648669768846   -1.01621593136770
H          -1.22345376562252    1.41864166041680   -0.91885547538924
H          -0.91227221645456    2.50293180085756   -2.18475125907367
