    26
        -50.46133375  Gyration_radius:  2.45476830596 Dipole_moment: 4.884
 S          -1.55224338473811    1.39909451724456   -0.37370223573720
O          -1.00797182325432    0.92259222352410   -1.62859500045318
O          -2.67507527307588    0.57301276387715    0.07143408415098
O          -0.54784510338023    1.55323546766663    0.65729618419546
O          -2.14209577581030    2.84095182410061   -0.64479631388910
H          -2.74205662976711    2.69241400797465   -1.36903053961216
O           1.96989285279078   -1.05806467057370    1.03152430139962
H           2.74098548120452   -1.57216508099540    0.78897272993167
O           1.97959000650108    1.42261802593234   -0.33287381385502
H           1.05609479451334    1.62693374751802   -0.10326294868099
H           2.26300601760406    0.79249718708190    0.34344602345428
O           2.06954302883379   -0.22225603489646   -2.47574568770207
H           2.14092275218527    0.45061364547801   -1.75982094429059
H           1.54469109573695    0.20159847186978   -3.15758446398050
O           0.18253468569364   -1.32626793964835   -0.98627064218921
H           1.32308929755341   -1.16216155679892    0.29653013471217
H          -0.32655217149414   -0.51158811864710   -1.20785441174526
H           0.92358011018595   -1.25879203108339   -1.63000031697039
O          -0.02864469972018   -0.14857274186377    2.65148274838363
H          -0.96979845309779   -1.08219509492213    1.85398688657986
H           0.85398247827154   -0.43662382859201    2.36765435948567
H          -0.21268314092318    0.64923045614189    2.11424958893847
N          -1.57476503213054   -1.52588791559010    1.07793547928660
H          -0.95221732778882   -1.83272898844425    0.31619778135170
H          -2.15198863100544   -0.70856663026937    0.68371668969293
H          -2.16397517486313   -2.27892169600565    1.41511032750837
