    26
        -50.46133363  Gyration_radius:  2.45534440431 Dipole_moment: 4.860
 S           0.84443552323806    1.18193937384862   -1.55037539115544
O           0.22285675727148    0.00242422505642   -2.11645708881910
O          -0.09477386723572    2.30194206799813   -1.48133142183088
O           1.48456884985877    0.92912251767958   -0.27681322879679
O           1.98914009766090    1.62302207703720   -2.54802874126062
H           1.52866338449147    1.70538243698800   -3.37731433848139
O          -0.26417453899223   -1.13616505920411    2.16779612497170
H          -0.61687950371201   -1.94823125387578    2.53375496139742
O          -0.30966947060452   -3.10738067872860   -0.84731698244121
H           0.51425075755491   -2.72007185213309   -0.47105818083855
H          -0.20525641309960   -3.02825484714433   -1.79741123963153
O           1.73545863407708   -1.72444232175579    0.25193528867907
H           1.75826781602522   -0.81705916327108   -0.09945286139430
H           1.37824135670099   -1.62856774894780    1.14520241624815
O          -1.44054853898561   -0.79183989840469   -0.24855706781028
H          -0.85443527701295   -0.43460976273068   -0.95618523823014
H          -1.35288356631128   -1.75866244866675   -0.40902533428524
H          -0.69737963109823   -1.01441804517676    1.29211613782709
O           0.50049825706204    1.48339914386823    2.14535876278997
H           0.37558459519338    0.57389447951861    2.46098181936441
H           1.07331670497537    1.39450539895160    1.35605624017692
H          -0.79977539776332    1.75502546574935    1.35191893111836
N          -1.55251278127699    1.79478840089005    0.57938760742444
H          -1.02187360059856    2.11446638021822   -0.29969674140799
H          -2.32150750599799    2.41555682033348    0.80566934193914
H          -1.87361267114496    0.83423428200718    0.38884622457507
