    26
        -50.46133365  Gyration_radius:  2.45470676515 Dipole_moment: 4.887
 S           1.97425765198221    0.69495053876281   -0.35742982053849
O           2.18084345498046    0.04837847624282   -1.65370485711669
O           1.03630667509562    1.79432713849428   -0.45694144737350
O           1.62412958437515   -0.25639218125199    0.67596590034205
O           3.36831983667649    1.31542323877662    0.05702334001836
H           3.51147146100933    1.98017606929815   -0.60939545901715
O          -1.87496761933929   -1.24619812831775    0.99846940183727
H          -2.80037107438851   -1.13344040609118    1.21907400712737
O          -1.96276412245272    2.36238580223186    1.01329277169197
H          -1.38448225010163    1.83499891816960    1.61137553755798
H          -1.43066351525778    3.12110633681261    0.76600215196237
O          -0.30507299029251    0.68968436056562    2.34031004429210
H           0.49052539850151    0.51060407002290    1.80912341368030
H          -0.83071532574402   -0.11859050954475    2.26839396991782
O          -1.27854132527700    0.62753809391168   -0.86328811997388
H          -1.66578134513955   -0.56517728324906    0.31865972379739
H          -1.82892608991168    1.27448458403924   -0.36672585215779
H          -0.38711872849193    1.03909901097523   -0.77315998893428
O           0.39557909886315   -2.60431577102047    0.33066067599696
H          -0.44367431430466   -2.39373790481269    0.77092075425992
H           0.17538539772563   -2.07183900294311   -1.10456573168659
H           1.00455049264337   -1.88758426306626    0.60375956369029
N           0.10128307007078   -1.43568895587936   -1.97364216407372
H          -0.67022551794388   -0.76918596055207   -1.82392242109284
H          -0.00637659563601   -1.95496379811050   -2.83776130647407
H           1.00702868236329   -0.85604248346665   -1.96249408772517
