    26
        -50.47399118  Gyration_radius:  2.3893758375 Dipole_moment: 4.403
 S          -1.22928814935894    0.42552777336834    0.60810675758892
O          -0.43230646681793   -0.80836238884008    0.69448300168684
O          -2.29831619301057    0.32036215810399   -0.34429141968287
O          -1.82404503379804    0.69071474880602    2.01249281513040
O          -0.33303912883504    1.55743837626272    0.29680505107852
O           2.08102593140783   -0.64707667337132   -0.25821046003885
H           1.21861776424805   -0.92105951156806    0.11120138744371
H           2.42230493057153   -0.00287984752339    0.37746860860380
O          -1.16441509521035   -2.65864166860291   -1.10639449795326
H          -0.88446190751801   -2.04662097085421   -0.39700851670632
H          -2.02559941801391   -2.98892247280248   -0.84481276567445
O           1.91578727536768    1.47333021353368    1.59991139890714
H           2.17863694248269    2.35543017289164    1.86641709306515
H           1.06026130593970    1.57160542538823    1.10912481982092
O          -1.41983723285634   -0.53508124329795   -2.70652154105438
H          -1.28457859903394   -1.45441008356531   -2.39113780573218
H          -1.95549542423033   -0.13601562029417   -1.98981008139871
H          -0.10647069396069    0.20533616008204   -2.42923497965094
O           0.35183659764871   -0.13459430096814    3.17171838228350
H           1.06653927655069    0.44549765125294    2.85135201002892
H          -1.08036697275423    0.46826085544479    2.62975014962930
H           0.27291224671659   -0.82625669512686    2.49914369945830
N           0.69463592151316    0.78480349350182   -1.98932709299808
H           0.25471911729845    1.29598096189551   -1.18017042822474
H           1.11753225758540    1.41689355462711   -2.65999484672740
H           1.40341075804992    0.14873993165122   -1.53106074889082
