    26
        -50.46133380  Gyration_radius:  2.45459789447 Dipole_moment: 4.893
 S          -0.62444131506324   -0.69515442746950    1.90597102557691
O           0.50529811074367   -1.58637003772350    2.17193394221590
O          -0.23308996386165    0.69679784468706    1.99220880059990
O          -1.29318576215892   -1.01963089408215    0.66378589728175
O          -1.67359490960208   -0.95099051120450    3.06090382328674
H          -1.20992169898692   -0.65604463052829    3.83841842546095
O           0.06444549996906    0.33785411817083   -2.43916216800077
H           0.26792265289203    1.01607167724454   -3.08436749299393
O          -2.02115077066511    1.19773962512709   -0.72882576708171
H          -1.64389185529830    0.86278485715285   -1.55359380521973
H          -1.88060784884163    0.47923160531668   -0.08753417163637
O          -0.27457516425021    3.21056371294722   -0.27703134376594
H          -1.01017685639126    2.57996651262172   -0.45495667798529
H          -0.36579590706545    3.43600727181375    0.65072830729370
O          -0.20500868243231   -2.19976201185654   -1.47314401878551
H          -0.79025098894866   -1.94385667449891   -0.73083260546438
H          -0.24759650050096   -1.44977626132651   -2.08817682954099
H           1.11767082144521   -1.94698216849269   -0.71160789346269
O           1.26972164790104    1.06797775545833   -0.12645557072537
H           0.50826520449572    0.60707637920113   -1.60240781175202
H           1.00528911816073    1.99964775929537   -0.30015394709237
H           0.75378819995709    0.88150652641302    0.69278786707481
N           1.86003007568524   -1.58347221067680   -0.01744519055105
H           1.39076239495196   -1.66342130666574    0.94698960208057
H           1.99928393664296   -0.57674827688580   -0.18803056620000
H           2.73081055124192   -2.10101623402754   -0.06000182065943
