    26
        -50.46133377  Gyration_radius:  2.45436646674 Dipole_moment: 4.890
 S          -1.81575762475995   -0.07103778174327   -1.09635752992736
O          -1.60931568048153    1.13567271862491   -1.89779013299426
O          -0.94369597687717   -1.14620967672885   -1.52225960607423
O          -1.73183417962511    0.19781893180112    0.32357354238341
O          -3.29875451569072   -0.54247534745242   -1.37705540567889
H          -3.27710944381012   -0.77378471815694   -2.30038811584146
O           1.56500780341254    0.26015656474007    1.88418673650684
H           2.38197704990874   -0.11138695623201    2.21924828632436
O           1.47513045049771   -2.87494032879715    0.09487162745255
H           0.77618991750128   -2.59715727423554    0.73092906194138
H           0.99962701996824   -3.31129552136330   -0.61467917749089
O          -0.41137154819141   -1.75580533395903    1.67420503968971
H          -1.01076600341296   -1.20484893678324    1.14084457404703
H           0.14939305230890   -1.12119418670512    2.14062373292761
O           1.44008672328139   -0.36770778663973   -0.74759159113846
H           0.54299370049238   -0.60175256100798   -1.08253563514941
H           1.52728303812145    0.03200133153903    0.92713230086132
H           1.79384553962650   -1.26099337782720   -0.53523302962826
O          -0.35422908959340    2.16190040219969    1.50075392017048
H          -1.04721282625414    1.52576719424716    1.22839358028156
H           0.31304592618111    1.61928670610338    1.95107094346317
H           0.24453910428542    2.34077533711385    0.08599800058305
N           0.53671584081972    2.18938721079302   -0.94217363680272
H           1.20156579904940    1.40299839863801   -0.97895927595065
H           0.91150101859850    3.02561261191663   -1.37596388392129
H          -0.35885511535567    1.84921236993654   -1.43084431600635
