    26
        -50.47399128  Gyration_radius:  2.38941699527 Dipole_moment: 4.403
 S          -0.94884513451797   -1.03431616290988    0.30265862481228
O          -1.98246021757147   -1.40902085543926    1.39231359169638
O          -1.20445188825485   -1.81187032057153   -0.87678676555681
O          -1.07249290440122    0.41143580957052    0.05843563220354
O           0.38945198581648   -1.31622981844535    0.86024020900068
O           1.15659108834757    0.43608794871942    2.62195702101107
H           1.62925088818703    0.00494887600071    3.33533253989251
H           0.89509213295568   -0.27828956743077    1.98649716939477
O          -1.50854853346107    1.00602360961734   -2.52215359383620
H          -2.39664408310662    0.71607797896174   -2.73736105937655
H          -1.40059707065883    0.85196698444782   -1.56254237635424
O           1.22308951664563    1.81507842168958    0.15787466001510
H           0.30341006605246    1.49980828962068    0.05753898720068
H           1.42852113992267    1.66699896835966    1.09133431527365
O           0.24761497733093   -0.96296571651804   -2.93933467501103
H           1.35213534928458   -0.59198731885892   -1.94322518738845
H          -0.30535262555773   -1.50127622164963   -2.33575556624847
H          -0.29054577617116   -0.15168403459733   -3.06206255366027
O          -1.55539980414195    0.81594431780626    2.66793411735755
H          -1.58722883045187    1.16825924894306    1.76693862428675
H          -1.92725471038968   -0.65828718204928    2.03798811256629
H          -0.60964270424789    0.81623863276911    2.90348881718716
N           1.94231163335937   -0.41784726363791   -1.05304469026041
H           1.85460036503421    0.58821492563336   -0.74138632421891
H           2.90763702359748   -0.70256062577832   -1.17673994973246
H           1.45975811639906   -0.96074891425214   -0.29013969026719
