    26
        -50.47399124  Gyration_radius:  2.38945928204 Dipole_moment: 4.399
 S          -1.42697029949424   -0.01680738043248   -0.15928623552150
O          -2.02189334522366   -0.75554025408507    0.91829186836950
O          -0.92590760728302    1.29673751322877    0.29350079533340
O          -0.32852373449702   -0.75341820512828   -0.80427435263820
O          -2.49925868078452    0.25523971106730   -1.24213101002948
O           0.25216446118999   -3.06597395673769    0.42806456028261
H          -0.47665760235557   -3.66772552526612    0.26743178701936
H           0.05640607866299   -2.26185297521508   -0.09279086444638
O           0.65824372041861    2.43785034705461   -1.42465830756261
H           0.49933907340319    3.38253332923629   -1.44700766151535
H           0.03124751440773    2.06355191905811   -0.75445640686423
O           2.13874470599045    0.25232004476132   -0.41838054319376
H           1.35282091313516   -0.27647328064867   -0.65927441712574
H           2.01149693958691    1.09554144401385   -0.87465639056547
O          -0.67654095426851    0.68064261996916   -3.04647657966872
H          -0.28849741370191   -0.10156631310943   -2.62873607107958
H          -1.96848371570846    0.49813004274557   -2.04400580218484
H          -0.14281345119588    1.42864887698457   -2.72166261232371
O          -0.18523730602724   -1.62751844064153    2.63582970702944
H           0.62550542998502   -0.36304775161773    2.33082915967084
H          -1.02767030849146   -1.35356040243481    2.21748186649881
H           0.14817712571355   -2.31741078066996    2.02287023859209
N           0.98847267994310    0.57678748753640    1.93565714396208
H           0.16188229029083    1.00953567874576    1.44669975058236
H           1.68261613528718    0.40788078794097    1.15695375339208
H           1.36133734103178    1.17549543364265    2.66418661397937
