    26
        -50.46633014  Gyration_radius:  2.51123821409 Dipole_moment: 2.619
 S          -0.81020953831084   -1.41426557480360    1.31372995684825
O          -0.91241867820833   -2.71783055158249    0.70168002806616
O           0.52285899723307   -0.88496734555183    1.43178817190064
O          -1.71846789841126   -0.43730565929265    0.69088820000449
O          -1.35757202903213   -1.59032514078152    2.80007584701723
H          -2.01378898841177   -2.27092207327145    2.69085694464473
O           2.10822750292553    0.88385777840962   -0.95929749343920
H           2.83360073426748    0.25892585710436   -0.92237350880289
O           0.56478854989431   -3.01139551802001   -1.46541405377520
H           0.11845738110633   -3.68243561975137   -1.98518622550394
H           0.11455140327242   -3.00617623789578   -0.59165476853749
O          -0.25852811706637    2.26259267087749   -1.93793926438863
H           0.70212059097194    2.33465984654327   -1.90150469480802
H          -0.42557627532142    1.32198126582121   -2.11497114642900
O           1.45638145632916    1.57430579886962    1.57677096077099
H           1.90191182511712    1.50856823695094    0.70787430546063
H           0.04481510267583    2.00814568740758    1.12565538515525
H           1.22144739547710    0.64176059784311    1.76767575595126
O          -0.18524931333251   -0.44503130742021   -1.51115623801970
H           0.13573269225344   -1.35806104487946   -1.67055522641972
H          -0.78970995772640   -0.51532010856368   -0.75171716922782
H           1.30213199030405    0.33719842456451   -1.10088744346969
N          -0.92347563083444    2.06943160512226    0.65447980967389
H          -1.52762006069772    2.75358311643070    1.09445412776580
H          -1.33566516791528    1.09713491271352    0.72193392176112
H          -0.76874396653019    2.28189037307906   -0.36520617220808
