    26
        -50.46633009  Gyration_radius:  2.51132564342 Dipole_moment: 2.631
 S           1.63558846084319   -1.26350176711749    0.32758939308028
O           2.85648597917162   -0.52358564983744    0.54259306844666
O           0.59279097658193   -1.03747086309935    1.29341486832491
O           1.13074124014113   -1.11222389660051   -1.04705498543553
O           2.03517283474203   -2.80159622662071    0.44834773186320
H           2.93034783325206   -2.79999382301398    0.12506776616063
O          -1.70511762168545    1.41642625549271    1.11255795310653
H          -1.44728300889823    1.70219182813282    1.99000588964590
O           2.48229046829188    2.01739342496919    1.15122909114120
H           2.67410197381263    1.05654235166534    1.07324221297410
H           3.27395660229074    2.46702288424955    0.84992004408589
O          -1.95855628147688    1.38669008681675   -1.78410672412499
H          -2.43055211890583    1.63875175941767   -0.98217194543511
H          -1.03770307394122    1.64734369439307   -1.61650431495849
O          -2.02763985800824   -1.27202341380151    1.16441333994015
H          -1.82702093678423   -1.35367360638169   -0.36443646334628
H          -1.08134756148156   -1.37714294362004    1.39875126322692
H          -2.16739627183717   -0.30901763614102    1.26820653321273
O           0.46636289137975    1.43003291258664   -0.50490612889924
H           1.15767846914309    1.82112333468850    0.07051360098592
H           0.79251871307919    0.54055498190289   -0.72760369208073
H          -0.86897988490062    1.38452319706753    0.59436034528600
N          -1.47638520081234   -1.22096909341392   -1.37575905700322
H          -1.74423339167787   -0.24935981562489   -1.68106922759239
H          -1.83529035329752   -1.92690845183329   -2.00780332614774
H          -0.42053086900810   -1.26112952428711   -1.31879721644861
