    26
        -50.46633012  Gyration_radius:  2.51122379777 Dipole_moment: 2.621
 S           0.29527285614356    1.52930687763265   -1.39894808657582
O          -0.14965334378456    1.75616007782810   -0.04928202468445
O           1.69780955673751    1.76999548724799   -1.64260088048739
O          -0.13258638004640    0.20769557799652   -1.88647756510928
O          -0.48774126764541    2.57415732129994   -2.31266398848917
H           0.09575140209987    2.66085995410057   -3.05945054461877
O          -0.04489929407417   -0.53585669566002    2.41994157290243
H           0.45323833447306    0.08371878941141    2.95480205246136
O          -0.62563586667457   -2.83163690741114    0.73090171408441
H           0.22237948624036   -2.48839210894603    0.40372232989455
H          -0.67152208903856   -2.53004571892554    1.64540839518308
O           3.29827712720033    0.78066168668913    0.20792026707651
H           4.13191609860235    0.62233955512168   -0.23887091645283
H           2.74746451261155    1.29105184121173   -0.42635036400724
O           1.26555668615279   -0.95293930002388    0.08772885305349
H           2.09753335936139   -0.45162912289457    0.22365011918156
H           0.44706809629482   -0.59804153913156    1.56977694159401
H           0.83858381488335   -0.53630719339508   -0.68117261800980
O          -2.15657320239698    0.77954361563567    1.35033235598184
H          -1.54081938248007    1.37448438443982    0.87263196599404
H          -2.27572784189307   -0.26988296271031    0.22404917396193
H          -1.56119377849796    0.30502198276903    1.96523523750761
N          -2.07149560755019   -0.97833826094704   -0.56321363540698
H          -1.61480956315843   -1.81955105216324   -0.12432473736428
H          -1.35555642631507   -0.51219073636895   -1.18759531404151
H          -2.90263727724803   -1.23018556283640   -1.08515028361163
