    26
        -50.46633005  Gyration_radius:  2.51134205208 Dipole_moment: 2.613
 S           0.55588580630874    1.71980689629344    1.05680717090882
O          -0.80965131153356    1.35188023813013    0.78980976090798
O           1.04045220947047    1.40380421480430    2.37955394360763
O           1.45703104413608    1.22383751322830    0.00378674739427
O           0.62533854417452    3.30762670287780    0.93903271889500
H           1.37385492942558    3.51530812062221    1.48890727453937
O          -1.80405078167668   -1.66922555252235   -0.33057074871578
H          -2.40261831497278   -1.73590066975822    0.41462930591037
O           0.51646257306410   -2.14733595585981   -2.01610312958229
H           0.86986710376506   -2.10009752303039   -1.11233605735756
H          -0.40599723459170   -2.40299955072724   -1.90170474705082
O           0.38332311341145   -1.01009856146928    3.21981636221167
H           1.06575129616806   -1.25198983000521    3.84866046746356
H           0.52892903173852   -0.05888006545072    3.01951558477926
O           0.71688820396895   -1.28989044191321    0.58119873385304
H           1.05373351448053   -0.38816369155649    0.43806581418503
H           0.60278155306681   -1.37131167799386    1.55195138917523
H          -0.92292028203853   -1.47250812160787    0.06131921561439
O          -2.09726090157016    0.78470264275804   -1.43738250974336
H          -2.23037831188624   -0.15022183827326   -1.18048323593288
H          -1.79793561866232    1.19643008994488   -0.59942299935738
H          -0.69745878728649    0.69214989401787   -2.08216807583597
N           0.34947616701974    0.51811602097941   -2.27487781291142
H           0.85978251835804    0.87219462375480   -1.41818330001482
H           0.67382604960927    0.98629816889351   -3.11286250319980
H           0.49488791607287   -0.52353164612677   -2.32695934974711
