    26
        -50.46633011  Gyration_radius:  2.51135572567 Dipole_moment: 2.620
 S          -0.51547554110270    1.11225486145224   -1.69697043743306
O           0.84062807300735    0.88684937752032   -1.27094776235053
O          -0.98122646827241    0.26624994604363   -2.77017923329224
O          -1.44055270329318    1.11413879624240   -0.55175059885533
O          -0.56711402501296    2.60004974860884   -2.26585398207194
H          -1.30431905452318    2.55712999689096   -2.86633578443917
O           1.77871691604167   -1.37815024213427    1.04003062700278
H           2.38816891538396   -1.75349197223549    0.40302833921900
O          -0.57545089635513   -1.08953851666875    2.72466844877458
H          -0.91247466832463   -1.42759999475516    1.87840013238592
H           0.34549694019925   -1.37350941512685    2.74860433827412
O          -0.34554904408628   -2.28041191392064   -2.49450697883395
H          -1.02205560735261   -2.76188989871114   -2.97431238770796
H          -0.48066857271448   -1.33319219769722   -2.71960186171973
O           2.08224411053024    1.31244344110854    1.01312810738813
H           1.80219706421516    1.33166048721644    0.07368660275173
H           0.67088511139321    1.50661477311372    1.60782792073930
H           2.20864654829523    0.35615531788944    1.17858459485998
O          -0.72343452860538   -1.41050801899747    0.00589650455529
H           0.90590908016007   -1.36240046716217    0.58548309990022
H          -1.05101850585365   -0.53171899554241   -0.25388785514006
H          -0.59555364711161   -1.89743377047724   -0.83586247167124
N          -0.38125011683674    1.43431914580891    1.83448698482820
H          -0.71436429498041    2.21428189263984    2.38886172721915
H          -0.53995597525470    0.51314595721437    2.31934709064441
H          -0.87242911950296    1.39455164181332    0.89817482501511
