    26
        -50.46633008  Gyration_radius:  2.51107099535 Dipole_moment: 2.630
 S          -0.44718240571973    1.92547392519130   -0.68429863102461
O           0.09174370650980    1.64452564387896    0.62029147380422
O           0.50517852425076    2.38302588407705   -1.66813541181656
O          -1.25783443332024    0.80082821087459   -1.17966004212987
O          -1.48224393040689    3.12233594834312   -0.49501687324394
H          -1.49161808037827    3.51606436107302   -1.36142784110526
O           1.41446556889076   -1.29792568373175    1.56784271620963
H           2.21145896100514   -0.83433542615075    1.82856944361456
O           2.76045242217426    1.01222033840774   -1.70753786439499
H           3.08954003428277    1.09551057006465   -2.60446762259257
H           2.00931507633907    1.64238878863411   -1.63839809172462
O          -0.39360223584614   -2.96396439618625    0.01190072365540
H           0.18487877852973   -2.98578961460298    0.78276178287572
H           0.09696264045671   -2.44356404819128   -0.64586291960779
O           0.89915072375418   -0.78868828907254   -1.04164735879290
H           0.14423175427844   -0.19041518685480   -1.18051347839936
H           1.68855393899097   -0.27584789263330   -1.31709744190952
H           1.24959612973577   -1.02586673558931    0.63653240841520
O          -0.70479780234706    0.05902097376482    2.56730706665401
H          -1.64106752448324   -0.56964045385686    1.51270790288921
H           0.07508520272564   -0.52489492464974    2.47428639130091
H          -0.45260057751140    0.83934484898569    2.02988961768807
N          -2.07141331537617   -0.95489785379574    0.60179481492993
H          -1.55576881762102   -1.83935399873019    0.35515559207865
H          -1.85264170738435   -0.23589360543639   -0.14300859986673
H          -3.06984263150343   -1.10966137377714    0.67803224252369
