    26
        -50.46633009  Gyration_radius:  2.51119200737 Dipole_moment: 2.611
 S           1.01695235464950   -0.03031924524069   -1.82941450644840
O           1.15635786436623    1.01874784387161   -0.85402439370839
O           2.07148264924841   -1.01637811748409   -1.84075405296266
O          -0.31784795240169   -0.64764360870536   -1.76129433018023
O           1.06850974707158    0.67412809706773   -3.25800969745905
H           1.37282300416011   -0.03286919360609   -3.81772639823375
O           0.06980422105135    0.84135804426390    2.33090921930426
H           0.95400398204126    1.05645026352406    2.63085985860360
O           2.79159901279148   -1.85239241202721    0.55665287648763
H           2.66705264401586   -1.47316837847585   -0.34156318715078
H           3.13910711658214   -2.73588309147907    0.42139659814555
O          -2.30932952350133   -0.72865641119062    1.75450813006174
H          -1.93840873808040   -0.12164161753593    2.40514349001183
H          -1.56522222094122   -1.30073820949349    1.50348596140794
O           0.16985355428498   -1.37291630090171    0.77579220075115
H           0.18087954846485    0.07216598859137    1.72705853932901
H           0.03268892597460   -1.19330506806685   -0.17075493204296
H           1.11028869769014   -1.64036726542666    0.85378030506726
O          -0.59708267343118    2.56902164079985    0.35515237121722
H          -0.42091061274354    2.16836237509298    1.23047666468084
H           0.14422259259176    2.22892730474874   -0.18897601602511
H          -1.65888863776420    1.58639096150907   -0.18419848317805
N          -2.19252840484031    0.70716174458611   -0.50920198066926
H          -2.40774867464088    0.13104487825491    0.34557919426783
H          -1.50734502782783    0.16057928426489   -1.10200958070487
H          -3.03031345882805    0.93194049305574   -1.03286785053090
