    26
        -50.46633015  Gyration_radius:  2.51086243755 Dipole_moment: 2.620
 S           1.82915867434872    0.64845192369251   -0.78112646762902
O           2.71282846461733    1.13381035116802    0.25225405145457
O           1.44884160700310   -0.73549137659992   -0.67529377165596
O           0.65056167542182    1.51353951586404   -0.95353808365697
O           2.64142188899649    0.78847112873887   -2.14513454448101
H           3.18229705544687    1.55331707418563   -1.97710567072024
O          -1.15540462693943   -1.88636031504784    1.11633844075501
H          -0.55639207737504   -2.47746994389392    1.57449761792623
O           2.04085454472194    0.37738889500274    2.68983360011774
H           2.41730767157823    0.56374895927475    1.80118212574470
H           2.38991547998870    1.05726591147129    3.26918015868022
O          -2.90010400091425    0.38755756677800    0.61718451050196
H          -2.14584944608172    0.75343548770349    1.10837943173611
H          -2.91851219521834   -0.54461427462200    0.86236044598034
O          -0.29050496347406    0.66295534442428    1.41129785939420
H           0.09721493424842    1.04030385563741    0.60245375327160
H          -0.75684088020492   -0.99126179509937    1.20860083261887
H           0.46101816549478    0.55760038264741    2.03273854750365
O          -0.64961790148645   -2.07443671697559   -1.53736202927562
H          -0.97014785330935   -2.25014035719065   -0.62954353342172
H          -1.28289881969091   -0.68799693976186   -1.78490538737358
H           0.26101527464672   -1.74565317289766   -1.38246729751372
N          -1.57919310430938    0.34691888898829   -1.71812869668137
H          -0.69371005736177    0.88356405794543   -1.49983187761905
H          -2.22361086972952    0.44108904045189   -0.89066194303406
H          -2.00964865043820    0.68400649811753   -2.57120208263268
