    26
        -50.46633009  Gyration_radius:  2.51081077423 Dipole_moment: 2.626
 S           0.46417947525395    0.36118416636084   -2.00674183726671
O          -0.50471747989669    1.11880349928911   -1.25934382902574
O           1.75944349154838    0.98064631777386   -2.15786016283746
O           0.56552276317368   -1.01854558630542   -1.50352387127537
O          -0.12021940256034    0.21548643265996   -3.48222519107672
H           0.66996432074540    0.09062713192104   -3.99790675506321
O          -0.86041756416920    1.03306303056157    2.08146310377340
H          -0.76274183296927    1.98609378699071    2.09790487115653
O           2.70624025915973    2.05684051814860    0.05840902399734
H           2.34206542182821    1.80555221438792   -0.81927198283210
H           3.66009274837054    2.03276135340564   -0.03791044482914
O          -0.21216530866076   -1.78610141974559    2.38813787017203
H          -0.67556222412814   -1.06163727259843    2.82378063285237
H           0.59633280092204   -1.37978606014374    2.03407438165572
O           1.31034548353892   -0.06639247713612    0.89201708298524
H          -0.07692230877411    0.70096926855114    1.58717272858598
H           1.13317824323178   -0.41135409170671   -0.00051887435429
H           1.89301188635650    0.71098126806858    0.75703465780741
O          -2.62841432272351    0.40851467780611    0.12775950666203
H          -2.06272377164576   -1.02546057628170    0.03491297417593
H          -2.22955935678601    0.69599621253838    0.97393739317072
H          -2.02436439572108    0.80127486921359   -0.53718987563487
N          -1.41578896043551   -1.88733174089436   -0.00767640863138
H          -1.89932429979325   -2.72196645612428   -0.31785178796694
H          -0.98982204034083   -2.01345933769025    0.94712828634402
H          -0.63763362554741   -1.62675971902609   -0.67571148254045
