    26
        -50.45538153  Gyration_radius:  2.56583498162 Dipole_moment: 4.102
 S          -0.01863783805877    0.28317367876726   -1.01214248250386
O           0.32176631322229   -0.38002474065970   -2.36466265118242
O           0.46156743556353   -0.64512101061541    0.04141825236141
O           0.64383541050216    1.56051167617089   -0.91248157180895
O          -1.47564991972880    0.36582537083706   -0.94408629699695
O          -1.25882461311987    2.26229606035698    0.89158760680384
H          -1.62855496852140    1.69930083390615    0.18791050590060
H          -0.36870523481780    2.44368667021224    0.56112659696796
O          -3.00758944986515   -1.50684649786548   -0.02978171245742
H          -3.05250821758261   -2.21385872901470   -0.67606943707259
H          -2.54072591283208   -0.75280139347639   -0.47576483328711
O          -1.58841156547800    0.66847894494230    2.93506198062815
H          -2.49819304778110    0.81182267933130    3.20370324653889
H          -1.39860938680075    1.34700108683960    2.22921116501574
O           2.60134779819850    0.73024947281732   -2.55754034031787
H           2.18031136526061    1.44700341485892   -2.05904467810374
H           3.07708434015316    0.19637584953644   -1.87397533644100
H           1.24019579460881   -0.02624897491238   -2.59952583085700
O          -1.14089809872982   -1.49901947026977    1.69738454480741
H          -0.38915954751807   -1.16840067271714    0.99805009781036
H          -1.31672272638433   -0.66589113669047    2.28550993744223
H          -1.96593112892899   -1.61871332030259    1.10343415957955
N           3.31742270846467   -0.70308289515988   -0.39691234404463
H           2.33331811747285   -0.73520723240474   -0.13208558217554
H           3.82020132055170   -0.24374121813002    0.35208956066062
H           3.65207107212059   -1.65676844635903   -0.45241455725485
