    26
        -50.46516758  Gyration_radius:  2.53874290638 Dipole_moment: 5.800
 S           0.60239983719579   -0.13874283328028   -0.06048828031985
O          -0.38157093927521    0.05897003324084   -1.25742910753072
O           1.39077184295346   -1.32444804992964   -0.27622477241084
O           1.39444035657891    1.10185887965822   -0.07511141539669
O          -0.21054289873459   -0.20491683234822    1.15059270649359
O          -0.80903549402771   -2.78396102346172    0.87695061074957
H           0.06946494672529   -3.15087260223898    0.74410034896019
H          -0.65839949277661   -1.85445751489113    1.13493017616170
O           1.03328178431040   -3.00199266721352   -2.30771706242393
H           1.60221245593730   -2.72992719788145   -3.02869370569618
H           1.27445507532729   -2.43917201165433   -1.54236152111334
O           1.41084572843314    2.33580306273460    2.32828606309353
H           1.81580366406401    1.77041217442774    2.98772586012446
H           1.54036034635009    1.88372352944505    1.47096247140745
O          -1.23416899779747    2.08330462077925    1.92719429693238
H          -1.01473184528132    2.54279615229346    0.52407106439904
H          -1.05023711710256    1.12883749370232    1.76328821621323
H          -0.40482863024052    2.38976352310735    2.34774777115428
O          -1.44525718967602   -2.18836378175746   -1.63585629850679
H          -0.70335397861779   -2.64647984997737   -2.07874880721202
H          -1.43217999482984   -2.53291738319035   -0.71207102656503
H          -0.86141809540605   -0.83948393726469   -1.44056905142418
N          -0.60474213697545    2.65517722390669   -0.49200109928535
H          -0.47076023779653    3.62468265249626   -0.76083664852944
H          -1.17755771698853    2.14734332102486   -1.16422447487941
H           0.32474874765386    2.11306302827565   -0.42351630439738
