    26
        -50.46850994  Gyration_radius:  2.45253950891 Dipole_moment: 4.991
 S           0.76637614628058    1.77491763593777   -0.74558474130160
O           1.15196967228764    0.80575101503396   -1.76153916059560
O          -0.67793893366504    1.97021914900960   -0.72347178737268
O           1.31073498539838    1.49471481501938    0.56401382628524
O           1.39300944021902    3.15529658651235   -1.19977666289029
H           1.00489667833183    3.27307260481111   -2.06013888336178
O           0.68346877804248   -2.03158360085859    0.67346580662185
H           1.60295887128526   -1.72802024092399    0.52724337355629
O          -2.46680090826568   -1.70868839938002    0.00594502204709
H          -1.89442208204743   -1.54333818716055   -0.76623111758616
H          -1.99196753224583   -2.34851936562138    0.54454731913098
O           2.85554902641719   -0.60412218751820   -0.08236473813426
H           2.68068217999967   -0.46823918101050   -1.01976811986929
H           2.49807427315156    0.20209959482454    0.32833682382662
O          -0.45905211747297   -1.22369984372351   -1.75826728617684
H           0.10116983963738   -0.40554636846222   -1.76910074289202
H          -0.35120000820369   -1.62626039956310   -2.62160470128721
H           0.24922608790442   -1.86322025138998   -0.17674761402487
O           0.15699379569530   -0.07492904254560    2.43061049376052
H           0.73193880716803    0.58103793951128    1.99747890076083
H          -1.17152963875411    0.38498713392586    1.81197145215390
H           0.35040289953985   -0.91411209271626    1.95128104012260
N          -1.96957695180736    0.66772205493094    1.14288483262717
H          -2.34666409516555   -0.21276065100538    0.71612637503442
H          -1.51388688355422    1.24470503731734    0.37907955966398
H          -2.69441235017461    1.19851624505194    1.61161072989430
