    26
        -50.46851038  Gyration_radius:  2.4525584821 Dipole_moment: 4.996
 S           1.91644001895939   -0.58530993932266   -0.52849809992778
O           1.12388493832585   -0.76008746414958   -1.73935672113846
O           2.08707455354252    0.82481720431742   -0.20873403764450
O           1.42744495064085   -1.37830313263421    0.57692961096922
O           3.36210529963224   -1.13529851338531   -0.86325248394921
H           3.61982283117667   -0.57831112811511   -1.58990753343997
O          -1.13208659536862    0.83826645341143    1.74966087862453
H          -0.30503485582476    0.76804439675214    2.26928793680978
O           1.45483585222377    0.51710356554565    2.47864582322437
H           1.50942617815307   -0.32752428849216    1.99888168196215
H           1.90123125468351    1.13362297308799    1.88853722037624
O          -2.56154255498813    1.06534975110590   -1.14186632914906
H          -1.71775135287663    1.55217688060049   -1.09572384051252
H          -2.91890119703956    1.08716281848409   -0.24919851593964
O          -0.13263181178286    2.12077660494385   -0.53637823517986
H          -0.87180647484399    1.36025943938111    0.97530944091094
H           0.12840365262547    3.03862749302777   -0.62825906303715
H           0.71158282311290    1.60371619766282   -0.47826950300939
O          -1.17133763824085   -1.78217383186286    1.17872978916406
H          -1.41057371463677   -1.64389664028566   -0.33218897029621
H          -0.20229713553875   -1.87348088063111    1.14571422216328
H          -1.31277609697199   -0.86624982317200    1.51389685960171
N          -1.40075215326767   -1.34045693619933   -1.36772093694317
H          -0.38673130609418   -1.13320743005993   -1.59710960148764
H          -1.94797151456807   -0.44863259238249   -1.43738935764964
H          -1.77005797101366   -2.05699114760716   -1.98174024449333
