    26
        -50.46851040  Gyration_radius:  2.45293202335 Dipole_moment: 4.994
 S           0.15918919252101    1.99561619347503   -0.53749167314618
O           1.26764985489221    1.37901709097771   -1.25227732204307
O          -1.12368811739772    1.56548343187190   -1.07973112410342
O           0.23600239219717    1.84478777479764    0.89821191439754
O           0.26300720666887    3.54810342255542   -0.82612433907786
H           0.20355640893600    3.57529954643818   -1.77503982530408
O           1.17238694649908   -1.61137464950330    1.04211486093799
H           1.85629001581113   -0.93654399057905    1.23155768683897
O          -1.31346948341963   -2.57806181097139   -0.79736689440276
H          -0.62004538640484   -2.11505615043695   -1.30338243050282
H          -0.85502438334189   -3.01021345415930   -0.07073656187583
O           2.64135947734919    0.66229930308269    1.05396741623501
H           2.79643716413186    0.80021641863225    0.11352465553448
H           1.84957229875938    1.19992086180182    1.22913528189816
O           0.80164932773385   -1.13059276100360   -1.69648189999732
H           1.06193107080681   -1.56090516352152    0.08027515384659
H           0.91974403024882   -0.15543844665442   -1.55972058311728
H           1.38681670478519   -1.36637373307498   -2.41826444156331
O          -0.75068917328208   -0.23477495302982    2.30649104539559
H          -0.39167369830322    0.64023881475487    2.07462079394954
H          -1.80751677066272   -0.31760735937657    1.19533297285796
H          -0.05562027946161   -0.86491558356891    2.00447164504723
N          -2.33463257430436   -0.33310719361921    0.25372933373541
H          -2.11290663128599   -1.24505114135186   -0.21400168929388
H          -1.91741572661342    0.45260306916892   -0.32280032297751
H          -3.33290985687676   -0.20356954670567    0.36998633673082
