    26
        -50.46850996  Gyration_radius:  2.45279534785 Dipole_moment: 4.992
 S          -0.38070669233159   -1.52310389601785    1.35317212725582
O          -1.61607951997578   -0.75123076535154    1.30181486679733
O          -0.15697676458301   -2.24372337783751    0.10787950563985
O           0.75216248692709   -0.73352019238714    1.78107602632549
O          -0.59514998339642   -2.62927359158948    2.46439196665954
H          -1.33934406111691   -3.11117091408399    2.11988706213468
O           1.62220741955206    0.72738421776637   -1.37452184094785
H           2.18832377592675    0.00959832036086   -1.02353128229368
O           2.50750207915245   -1.49294495532627   -0.10350435897095
H           1.89464821683003   -2.15950178904980   -0.43183332258550
H           2.09745289293901   -1.20787242730997    0.73139744332422
O          -1.35550043918398    1.88618478845541   -1.90123372165653
H          -0.48882768552182    2.22338599047091   -2.14641612505708
H          -1.29767557497511    0.91860511517327   -2.00884373718582
O          -0.69525657825494   -0.74857975987903   -1.93846162242814
H          -0.83706804553456   -1.36174903623037   -2.66161399378789
H          -0.55531898362035   -1.30868907454504   -1.13213081348382
H           0.82629778395268    0.26373957233532   -1.67699776322455
O           1.24073823831242    1.81595273985255    1.04656164019866
H           1.26611278406154    0.96704717156150    1.52325667101526
H           1.50050340578532    1.57956562015358    0.12567796986086
H          -0.28662894823228    1.94999774613106    0.95812772524400
N          -1.33979615628790    1.79795807114774    0.77821505265124
H          -1.50463481624133    1.93432294056801   -0.24830090867430
H          -1.91805470588698    2.41457837221204    1.33699773712490
H          -1.52893013827142    0.78303911338845    1.01893369606680
