    26
        -50.46850981  Gyration_radius:  2.45267440185 Dipole_moment: 4.988
 S           1.52790646517282    0.97569611624452    1.00389775302144
O           2.17934463502058    0.52790888798948   -0.21893022051929
O           0.54081201775467    2.01185001404820    0.72720883462743
O           0.99490142989312   -0.10065948840088    1.80841901547734
O           2.65821437288574    1.66144660024094    1.87390496357120
H           2.96948212402130    2.34347648548188    1.28852083060002
O          -0.52170871356224   -2.03433546134932   -0.79976099408922
H           0.31321577405768   -2.36066851922161   -0.40541778149042
O           1.91542365673022   -2.17231659777063    0.36992035327744
H           2.43083487537635   -1.58017100079194   -0.18806049647942
H           1.62544222407176   -1.59450141080064    1.09692186897782
O          -2.24522343089556    0.45969890075344   -1.93767717291027
H          -1.29468804261395    0.52518758651293   -2.14618575399808
H          -2.43547994958191   -0.48241987507324   -1.90349803061123
O           0.45464717286331    0.23446863620635   -2.13036703553164
H           0.97216679662667    0.26501689967555   -2.93672119770669
H          -0.23733510133364   -1.29272649779054   -1.35565181326639
H           1.09225136013793    0.41382853888768   -1.39236637912086
O          -1.47084963137697   -1.16646665047567    1.55383251950845
H          -1.88870950370424    0.23577233046195    1.08641472997274
H          -1.26307404348892   -1.63291237335685    0.71088613076710
H          -0.59738822043487   -0.92572690078608    1.91089595686549
N          -1.94697630357734    1.20693061216681    0.61955925930131
H          -0.96838238500688    1.61106279285396    0.67293917925639
H          -2.61362539385901    1.81542981425028    1.08016062108756
H          -2.19120217521824    1.05513057007761   -0.38884514055164
