    26
        -50.46850984  Gyration_radius:  2.45265549373 Dipole_moment: 4.992
 S          -1.17612513746861   -1.49917771490695   -0.81436679673133
O          -0.13812533032845   -2.20033548006408   -0.06901271740497
O          -2.09861322805093   -0.81631727759163    0.08165401166038
O          -0.63863309169235   -0.65144552968366   -1.85472229297259
O          -2.02603787405412   -2.61509456239334   -1.54704925973557
H          -2.35432218010813   -3.12436190078911   -0.81387625586192
O           0.10287585955113    2.24128839931389    0.12646472678852
H          -0.67595234110205    2.27121590701607   -0.46633252102149
O           1.87598029458024    0.58274522909868    2.26907004016355
H           0.91893539958763    0.41523652543608    2.35400692139235
H           1.95028605694119    1.48490242290905    1.94413923435363
O          -2.06591740761905    1.56486186441093   -1.34519486879787
H          -2.59922534881087    1.09331391566268   -0.69633414268170
H          -1.57364383791764    0.85142788973506   -1.78686572927474
O          -0.81812788954179    0.36615338070013    1.99914211970680
H          -0.18701888345054    1.67284119061171    0.85628688107582
H          -1.47101852627262    0.49599975960424    2.68903140487938
H          -1.27704269442701   -0.14655340293777    1.28506734769781
O           1.58176274577442    0.86613610539798   -1.63855553743075
H           0.82873545001490    0.37227229532415   -2.00937382164089
H           1.16145118317313    1.52763811643742   -1.04099129934802
H           2.07503793564050   -0.21940824219893   -0.67038216389470
N           2.16435000600977   -0.96833035039756    0.10141117658672
H           2.19193003966642   -0.46710878977182    1.02200023931216
H           2.97678180747086   -1.55973372387174   -0.02906474326491
H           1.27167698241504   -1.53816602704889    0.05384804646272
