    26
        -50.46851032  Gyration_radius:  2.45255954572 Dipole_moment: 4.998
 S          -1.53297707213945    0.13723185235430   -1.38751901895956
O          -2.01162544023179   -0.81550241193722   -0.39356779561975
O          -1.47217446944297    1.48491617934507   -0.83988187591451
O          -0.30654614141695   -0.28938478593093   -2.02305290331447
O          -2.63142640248684    0.17773673843368   -2.52608405177693
H          -3.40138904732937    0.46131268474177   -2.04501813668190
O           2.01978460115932    0.88025687111848    0.43880767046885
H           1.94211601961382    1.37916498281642   -0.40032045677436
O           0.55656050192008   -0.67185074025287    2.87039835204735
H           1.48152304443864   -0.46014257039323    2.71357993459825
H           0.05583429428615    0.10462157713734    2.55814087796360
O           1.06911239771242    2.00872756161523   -1.83044597865037
H           0.29005507913028    2.47171719585274   -1.50432548239398
H           0.70984432495812    1.15626579932420   -2.13174863565338
O           1.75925046514586   -1.49659366228609   -0.77632676948766
H           2.05141709109508   -0.67946713986894   -0.30912797436595
H           0.68893897785120   -2.07403403378974    0.16183228120737
H           1.15746993536413   -1.16932554337007   -1.46856733267750
O          -0.48636397188274    1.46469590033629    1.55623404704661
H          -0.91270323823716    1.42688083905672    0.66169926087485
H           1.21233639203828    1.11624326970579    0.92066229578798
H          -0.77720035336702    2.28890155010039    1.95016637061066
N          -0.16254463194891   -2.22525187061642    0.80730628026830
H          -0.38373481062998   -3.20670988898802    0.92825622985377
H          -0.96739010206695   -1.71122857668920    0.34701533735420
H           0.05183256656357   -1.75918175780102    1.72188747419060
