    26
        -50.46850991  Gyration_radius:  2.45316187596 Dipole_moment: 4.986
 S          -1.98931885942324   -0.52268444882971   -0.25870115622184
O          -1.26847142844301   -1.29507292983128   -1.26286175265242
O          -1.70009444116297   -1.00352454480639    1.08483803672144
O          -1.81034985319199    0.90297049512095   -0.41837956261214
O          -3.52711474965672   -0.80611967915230   -0.50173571237932
H          -3.57545125325059   -1.74759800774442   -0.37534218645466
O           1.29908592886842    1.27048599103015    1.32706007866989
H           0.48033725260388    1.57862090070652    1.76719502036039
O           2.79496303395789   -1.00392410789248   -0.43640411164585
H           2.15266381059786   -1.37130671206112    0.19905716123672
H           3.12592692482538   -0.19794163413614   -0.02925464861792
O          -1.27122165100819    1.53286223622607    2.13553070316045
H          -1.47854572064762    0.63803243048551    2.42507961968795
H          -1.58357847909190    1.54558468173734    1.21421184575740
O           0.50239709012347    2.12104227462366   -1.08790376704059
H           0.92414408677961    1.96697245785431   -0.21047387976890
H           0.80969627751921    0.82930545864453   -1.85908672288687
H          -0.44294479801565    1.95085784877383   -0.92747589160679
O           0.82775037161173   -1.49428387279277    1.37079786992624
H           1.24334182726460    0.30473529364784    1.39102932365357
H           0.88084345546965   -2.08617775124132    2.12305928612925
H          -0.13976555263879   -1.35070040667301    1.20691411142380
N           0.92315138607136   -0.19565718206045   -2.17762023529867
H           1.73083877205401   -0.60110753916387   -1.64599871118688
H           1.05527278028527   -0.27422776399614   -3.17923853376089
H           0.03644379849932   -0.69114349846471   -1.87429615458997
