    26
        -50.46851034  Gyration_radius:  2.45258017118 Dipole_moment: 4.998
 S           1.09189648772728    1.43161818254027   -1.02593210959354
O           1.36216106166479    0.21696422704535   -1.78185366878917
O          -0.29819089409534    1.84555773275601   -1.17113260286569
O           1.51166326252182    1.36361397552615    0.35581428414787
O           1.96410296495628    2.56781703005307   -1.69878598651317
H           1.64004864612293    2.55949581618247   -2.59301843478276
O           0.29576152607916   -1.91600630670824    1.13500608034735
H           1.25971245115390   -1.79562896744269    1.01112778384362
O          -2.71420772002472   -1.26999322168037    0.14326921155690
H          -2.08305944429844   -1.36644650195539   -0.59393518417548
H          -2.38120911123048   -1.84094599852072    0.84192511822965
O           2.71422346166932   -1.03673467747563    0.29518841763744
H           2.61608929425776   -1.08507017069296   -0.66173645618851
H           2.47506262113052   -0.11529740827741    0.49588519508366
O          -0.56400221529474   -1.49327291187883   -1.50190085651615
H           0.12511803528895   -0.79212647359404   -1.63196949365512
H          -0.47906191287632   -2.08598693490509   -2.25060237512020
H          -0.05764418127639   -1.87264941614892    0.23331932938800
O           0.01358985016257    0.43350888228361    2.39768784118584
H           0.08829419948599   -0.50942029063675    2.12091007104572
H           0.71266564947470    0.88364848618730    1.89061986828392
H          -1.18432407009841    0.94475876196983    1.58348210755674
N          -1.88721075152119    1.19312053214354    0.80327360669389
H          -2.38321142847703    0.30864212260712    0.53624036643277
H          -1.30155963998444    1.51360552701580   -0.02017737805598
H          -2.53670814254137    1.91722802359178    1.08729529482804
