    26
        -50.45511591  Gyration_radius:  2.5039818949 Dipole_moment: 4.609
 S          -0.92684168768365    0.17037798327113   -0.63847018960805
O          -1.76501022630390   -0.58892243266007    0.26180492255315
O          -0.26759947058934    1.28523303270277    0.06370790090250
O           0.05120851509706   -0.64891998923978   -1.34087202809219
O          -1.81720778639544    0.81274127983889   -1.74263610127409
H          -2.47705632826770    1.32705895590312   -1.20243746739097
O           2.49157450292711   -0.29647766266213    1.91064746686392
H           2.52577846155201    0.05210532012538    2.80326901808777
O           2.40225161849238    0.16744166804150   -2.11157022334687
H           2.27928378854261    0.63917586837436   -2.93734723959610
H           1.53970237992875   -0.27170838151274   -1.91087536391169
O          -0.04592382000739   -3.17599171354321   -0.36533800151723
H          -0.99046836079146   -3.33787786094160   -0.31540705702448
H           0.04682218124043   -2.33334943218990   -0.84585883064939
O           2.19276179445236    1.41907397332690    0.09517505013181
H           2.43697465512321    0.96652730891233   -0.78841763829585
H           1.12510332155137    1.43175123192413    0.08208809730072
H           2.40705506504546    0.73111279229766    0.85037849167689
O           0.23210440782086   -1.56338092206523    1.78614869256150
H          -0.53259103216074   -1.09983821904030    1.40081899040164
H           0.33741793968883   -2.34204046487423    1.20396909080020
H           1.63953361216936   -0.82312608146627    1.85225840688432
N          -3.19074494108510    1.85766846776753    0.20769138387987
H          -4.13341051875963    2.15695415751664    0.42312152129515
H          -2.53860747037817    2.51229120177795    0.62083047923711
H          -3.02211060121082    0.95211991843779    0.63732059812376
