    26
        -50.45511606  Gyration_radius:  2.50410357239 Dipole_moment: 4.614
 S          -0.98870112938721    0.27493138828345   -0.49431953549301
O          -0.85942412595535   -0.77319393399748   -1.48159006282701
O          -0.94038778161843   -0.27462615082515    0.87178960143769
O          -0.01057847004633    1.34148809527431   -0.65756453059680
O          -2.38437620393532    0.94818511469471   -0.64703006704667
H          -2.99990996740110    0.16996055751451   -0.56141919877120
O           2.62328887889053   -0.93396688459492    1.48713223831294
H           2.72460757543861   -1.79431328800521    1.89829128321050
O           0.98825502336823    2.76570929591814    1.28233200743466
H           0.35278646528636    3.45604176810710    1.48040671321888
H           0.67890031030095    2.33351953813102    0.44888068819238
O           1.73805749519921    0.63443686854869   -2.60496221671656
H           1.15491509340499    0.28170009406304   -3.28061997556980
H           1.14949339847321    1.03673141817777   -1.94067805580245
O           1.67990169327174   -1.44172656939687   -0.87496125120373
H           2.03396237573760   -0.78589296310856   -1.50807869001205
H           2.29374504536008   -1.10996621908924    0.55603508085330
H           0.71728565251161   -1.38122814623199   -1.00787505233166
O           0.79330755940993    0.50623420516889    2.43900176589976
H           0.95953964618020    1.45940126481376    2.10910012353893
H          -0.00143005393288    0.16063123344115    1.81481417700049
H           1.60540511201513   -0.06516050613357    2.11729184633630
N          -3.38311607084303   -1.44283678802130   -0.38592400264524
H          -3.16335118997566   -1.68015745309586    0.57316568595769
H          -2.57865257052541   -1.69827108649490   -0.95212601949586
H          -4.18352377124560   -1.98763086313634   -0.68109255289190
