    26
        -50.46851002  Gyration_radius:  2.45267809559 Dipole_moment: 4.989
 S           0.49519515419930   -1.53457367973244   -1.30171331524381
O           1.00536150335692   -0.32600824000652   -1.93707868341597
O           1.25976183024300   -1.86579305975463   -0.10776472041580
O          -0.93342925664638   -1.48937466030540   -1.08503803698006
O           0.75116101000240   -2.71461933535693   -2.32465790788671
H           1.69787435454858   -2.69430742669734   -2.41444579438831
O          -0.96380304351144    0.32653342938252    2.00388279539701
H          -1.14727982679101   -0.63506763036369    2.02904403005701
O          -0.98310734406370   -2.32619926491392    1.46558419878436
H          -1.19718885910242   -2.15845542322257    0.53139967623814
H          -0.04156718250143   -2.52742534612463    1.44204540087164
O           0.81258849089460    2.76585576817509    0.83256113272349
H           1.33132021094961    1.95372700931634    0.98283094586278
H           0.11135260956197    2.74739857590615    1.49050812270808
O           1.74935247479064    0.25816076496368    1.29302226081746
H           1.59290657353636   -0.52294110518188    0.70242914927937
H          -0.00762454546409    0.37296133794580    1.85116293225067
H           2.49666076790512    0.02301244074893    1.84558862427696
O          -2.32372290116678    0.67873285003970   -0.28093997160555
H          -2.10002006269292   -0.19630578179661   -0.64519940514356
H          -1.98440189260738    0.64535841222642    0.64373640064819
H          -1.24660474373018    1.48471566071437   -1.02220465647588
N          -0.32258875256308    1.87010993047634   -1.42491984498080
H          -0.47414820749050    2.47457740639577   -2.22397149408103
H           0.24894246935270    1.02014020435622   -1.69826480344299
H           0.17300916900284    2.36978717281683   -0.64759703589140
