    26
        -50.46851043  Gyration_radius:  2.45262802391 Dipole_moment: 4.998
 S           1.95913210473930    0.55433842259155    0.38685503938968
O           2.09404202422172   -0.32055035815531   -0.76904907243161
O           1.28148582373149    1.79557675625867    0.03347791979184
O           1.37420927531105   -0.09097761632922    1.54075826809989
O           3.43156608298848    0.95788295161654    0.80351942040869
H           3.75178475397520    1.37464940986445    0.01077020363990
O          -1.29066213472095   -1.83600933775331   -0.10075744688485
H          -0.51423034999803   -2.35149060172222    0.19988848272199
O           1.22019908539873   -2.59077121585888    0.57222338469859
H           1.32175472721471   -1.81739229804026    1.15369492010175
H           1.71614319401199   -2.34015452622877   -0.21441847487251
O          -2.45051146570303    0.82894882711182   -1.51953059049876
H          -2.88876838400099    0.03760408351579   -1.19290081090383
H          -1.61644399539646    0.51799398997971   -1.91796467612398
O          -1.26720955504391   -0.25466903387334    2.06551811965559
H          -1.44227756451572   -0.91756034475740    1.35753815511095
H          -0.29889713974074   -0.27041064803765    2.16824220917774
H          -1.36767206346141    1.08635182616005    1.32340088744654
O          -0.09152840468667   -0.35633440055726   -2.16038000520874
H          -0.96287485977673   -1.36361255650989   -0.88133768506239
H           0.74581115929552   -0.27232590609778   -1.63578292106266
H           0.17330076880528   -0.66581864428476   -3.02821605957409
N          -1.26436299137568    1.90639556898514    0.62959936633270
H          -0.23446234060729    1.94525555326711    0.38147089739669
H          -1.57304050978155    2.78641543283207    1.02597399956967
H          -1.80648725089614    1.65666462601512   -0.23259356092112
