    26
        -50.45511614  Gyration_radius:  2.50396672513 Dipole_moment: 4.618
 S          -0.19877707313991    0.86999359008542   -0.70638624178662
O          -1.01493957800532    0.66158019474215    0.50232742902113
O           1.05876604509744    1.50496354383707   -0.38203490292362
O          -0.03971495716974   -0.37565607736188   -1.44400325182255
O          -1.02095082555845    1.81318479109263   -1.63323021725980
H          -1.06437071514114    2.64819360729623   -1.09223474857108
O           0.47712040522422   -2.27486262356459    2.13559479584979
H           0.55704937122459   -2.11396739118810    3.07748991861180
O          -1.65863799529850   -2.41226640783644   -1.30386071407923
H          -2.39790952495033   -2.22411014619545   -1.88490474663693
H          -0.97964978683148   -1.71665044660874   -1.48329044892600
O           2.59917281086913   -0.98230501301680   -1.57863146180921
H           1.63700489015937   -0.85204309791362   -1.66054546558721
H           2.98983273479521   -0.13276068304039   -1.79457722703334
O           2.07236915407136   -0.54993407139632    1.03700701213755
H           1.11619418071767   -1.64131122070659    1.69202379211969
H           2.46681116525755   -0.94644024140436    0.23481552542200
H           1.69132289518349    0.28353731882572    0.70821672418013
O          -1.72558983914541   -1.61724475996396    1.11369966030486
H          -1.47805977171421   -0.60590583489309    0.87592979301635
H          -1.78011474152160   -2.07141244220318    0.19950772379990
H          -0.85401950733609   -1.96803770564031    1.56843031641513
N          -0.72660139730991    3.61887589121267    0.22032964691158
H          -0.65774694256874    4.62342399906329    0.32378366639000
H           0.20263134262257    3.21235076129530    0.28548199154696
H          -1.27119235954061    3.24880447546729    0.98906145071418
