    26
        -50.46272427  Gyration_radius:  2.48179329099 Dipole_moment: 6.098
 S           0.35255574689985    2.04296653133229    1.08412185703732
O          -0.67684555441236    1.27507730837413    1.74036669096523
O           1.67619408713185    1.92033679833993    1.63914175341849
O           0.31878916213294    1.80013884811517   -0.37149257266358
O          -0.03570772484532    3.58001968298413    1.25079096196338
H           0.81856628717070    3.96174581737279    1.42373653558942
O          -0.00054903873322   -2.26269868716757    0.68945354065217
H           0.28159002115674   -3.06634618812587    1.12835893923744
O          -0.20103330672052   -1.82722081659088   -1.94508723345253
H          -0.11257685700689   -2.06557835485026   -0.99223180886462
H          -0.13431783427754   -2.64145959470590   -2.44466284862741
O           1.96475689176709    0.04342300790989   -1.63523913929636
H           1.28815391284501   -0.57072578591150   -1.94935591129069
H           1.48438879676617    0.81728148705409   -1.29214446128802
O           1.97271604369270   -0.64073626339636    0.97994669202249
H           2.22530285215938   -0.47598048747619    0.04760814569820
H           1.89866356628153    0.24931789766399    1.37315430281485
H           0.72894658734484   -1.59011109395137    0.87402527586921
O          -2.23728260585595   -0.75263694834289    1.16252364574800
H          -1.55122372425149   -1.44423995754361    1.13789307549546
H          -1.80031848824566   -0.00231803506541    1.61721010282641
H          -2.05201021776071   -0.11226678161625   -0.22202066481035
N          -1.67426864003062    0.33564435642655   -1.13083209447057
H          -2.39303040954920    0.83677286345263   -1.63982393043436
H          -1.25287385012670   -0.41270877110769   -1.70075467929346
H          -0.88858566353075    1.00230314683041   -0.82468616484436
