    26
        -50.46272409  Gyration_radius:  2.48195838223 Dipole_moment: 6.095
 S           0.26297195541614    2.32056605553696   -0.14008598183930
O           0.11688216200656    1.89628875911498    1.23054470557397
O           1.61669591831481    2.48906595611653   -0.60281188567360
O          -0.54136184285906    1.45846025351815   -1.02812799151700
O          -0.40592721099814    3.76275622420044   -0.25536917663965
H           0.21927156979518    4.20308656266896   -0.82150115487136
O           1.10942132024813   -1.72386878767238    1.17789155095779
H           1.82773669824213   -2.24294419341098    1.54212162217431
O          -0.72390174049922   -2.50279069095894   -0.61162830113122
H          -0.71558820266068   -3.45217697352731   -0.73659877875103
H          -0.02334648460440   -2.29293466149829    0.05000146730217
O           0.49307678136765   -0.63002526642103   -2.42848178915130
H           0.09492238507185    0.20239988874850   -2.11886076367667
H          -0.00540189745190   -1.33796540297367   -1.99963036252860
O           2.25025200502993   -0.09065496095783   -0.44649800953328
H           2.14826601460228    0.87915255357165   -0.40909252193187
H           1.55402552361785   -1.02073005680359    0.60627264987049
H           1.83903638416976   -0.34722984132161   -1.29814499495960
O          -0.75358965883838   -0.22114019148134    2.51121901008002
H          -0.39485209551509    0.66468398864927    2.29380227291096
H          -1.62888140958467   -0.25389984671706    1.24839691105649
H          -0.03984946702070   -0.83323586119209    2.25513449981106
N          -2.02010281608095   -0.24369655261898    0.24048098298198
H          -1.80647949127466   -1.15512746021049   -0.19103660261386
H          -1.46116103018625    0.51054278646106   -0.28319701408930
H          -3.01211536030801   -0.03858228082039    0.21519965618809
