    26
        -50.46272415  Gyration_radius:  2.48183112528 Dipole_moment: 6.098
 S           0.26902777650803    2.27764542768364   -0.46145006166459
O           0.19807342994287    2.03776020645604    0.95892440252598
O           1.59549844326476    2.36809926559940   -1.01582253212288
O          -0.58804479025316    1.31689244371319   -1.18320345433820
O          -0.39861383802479    3.70059340864157   -0.72763110332829
H           0.19797646598407    4.05734373966095   -1.37743697361171
O           1.16161812024951   -1.56855359756573    1.33483882562519
H           1.89612092852108   -2.04542501852521    1.72366755073402
O          -0.77143376763375   -2.55226836958474   -0.23512168451030
H          -0.03450729472594   -2.26639853852008    0.35471201292915
H          -0.77626369835912   -3.50987260164814   -0.23298986657508
O           0.35621622631688   -0.95213857115022   -2.34615278052948
H          -0.12249512852109   -1.59054544287477   -1.80130669019086
H          -0.01997986015106   -0.08096469878907   -2.12974980280804
O           2.22054571065982   -0.17644699533846   -0.54920219758044
H           1.76257230270259   -0.53842972789102   -1.33626691715521
H           2.12682308686991    0.79093930944453   -0.63618969994991
H           1.57772559540652   -0.95159945609768    0.65305980642967
O          -0.61614679347814    0.12233367060991    2.55537407441831
H          -1.55884671681372   -0.06528322736756    1.35603905720963
H           0.07856101039893   -0.52802916755769    2.34578361345889
H          -0.26376108500274    0.96632499879182    2.20300778075226
N          -2.00447134501693   -0.18319531784011    0.37800003923713
H          -1.47066504630891    0.48771455895750   -0.27032948983558
H          -2.99510608313348    0.03001465939213    0.37885839173240
H          -1.82042362940145   -1.14651095820083    0.06058769914787
