    26
        -50.46272400  Gyration_radius:  2.48208633596 Dipole_moment: 6.102
 S           1.00698483929892    1.68536228943833    1.27331929353749
O           0.44011489369528    0.66384527132816    2.11908608965031
O           2.41099506036375    1.54869287264558    0.98162442424009
O           0.18456314991823    1.85487996724449    0.05933941823093
O           0.86978622116925    3.06743031054282    2.05554150452191
H           1.70898316587706    3.46850605376884    1.85494933076371
O           0.22396615366751   -2.35203080133091   -0.10952678677291
H           0.64418743193223   -3.21251612658180   -0.14163130535309
O          -1.32772988156076   -1.22188714007808   -1.97664130134755
H          -0.75784657460997   -1.70605028183539   -1.33367807449100
H          -1.59651558309701   -1.85426535803852   -2.64365611441206
O           0.78356598276826    0.70390412928000   -2.32965245949529
H           0.61136009935301    1.29589798369788   -1.57647848463471
H           0.00625852890566    0.13467115852893   -2.40242960684453
O           2.14625279960091   -0.67946097167043   -0.44940294090708
H           0.98078370761465   -1.68571772719147   -0.15298911770054
H           1.87031391438028   -0.23486857007128   -1.27791786104476
H           2.35065243446826    0.05205533170738    0.16324847517491
O          -1.30948273265632   -1.27710869359545    1.89072687605913
H          -0.78831803969413   -1.85770171030173    1.30688263959148
H          -0.65109144059250   -0.64101375408035    2.24085688151161
H          -1.85482414918789   -0.26034114070942    0.87540316301825
N          -1.99447516443937    0.46007499145727    0.08137684829765
H          -1.12635652584293    1.09347370041818    0.10424915687547
H          -2.84022913327311    1.00522393277141    0.20121141537769
H          -1.99189915812240   -0.05105569727224   -0.81381145404619
