    26
        -50.46272418  Gyration_radius:  2.48187660471 Dipole_moment: 6.106
 S           0.86996942611617    2.16797045059237    0.13018150116723
O           0.31000714700076    1.75482707487744    1.39330287364756
O           2.29100100687629    1.98268299157072   -0.01567445592196
O           0.10015710218476    1.58125061666202   -0.98437205848955
O           0.63271044204801    3.73940285379439    0.00693251785016
H           1.45810626582330    4.01357289006642   -0.37880382043798
O           0.33115163221044   -1.99346957847411    1.22800879804942
H           0.78991037560020   -2.69666684628653    1.68968185674715
O          -1.17471344660522   -2.19745581524323   -0.97697138377437
H          -0.61680926255382   -2.20386119595737   -0.16382917441850
H          -1.37952762251705   -3.10988329115957   -1.18322530899681
O           0.86441482868703   -0.66499367393489   -2.31184485853642
H           0.11720234949875   -1.22613060179376   -2.06612972005118
H           0.63040730811303    0.23392733957455   -2.02111812422109
O           2.19337697730691   -0.67628924980406    0.04205933882827
H           1.05926727671121   -1.41777061018242    0.83180205765366
H           1.93920552092041   -0.78759273851688   -0.89771940745269
H           2.33584220585990    0.28369107204933    0.14378914420455
O          -1.34445967250500   -0.08721217705672    2.26086725375456
H          -0.77100055831236   -0.86045841623192    2.10978163603699
H          -0.73153119699747    0.67561417078051    2.20692190899702
H          -1.88231707121360    0.15468696638988    0.84104099663045
N          -2.01379764206007    0.29985012785117   -0.22209724086090
H          -2.88736544619382    0.76415102640099   -0.44147375670061
H          -1.94519360689233   -0.62207816382107   -0.67802747949468
H          -1.17601435910641    0.89223477785271   -0.54308311420998
