    26
        -50.46272427  Gyration_radius:  2.48158004209 Dipole_moment: 6.116
 S           0.25707007434927   -2.14937520619826   -0.88674488857349
O          -0.32309532807675   -1.78844426214650    0.42179297083244
O          -0.72976587965823   -2.21956648108414   -1.93364737101555
O           1.40893385278102   -1.32710476971548   -1.16370290341735
O           0.78473504946557   -3.64218735695113   -0.70117528503787
H           0.09914451685755   -4.12954631357572   -1.14583861125620
O           0.13216367978849    2.18651391217081   -0.89234733921322
H           0.00040581949987    2.91653831833788   -1.49882027384860
O          -2.45460169940159   -0.12437459229589    0.70493056363292
H          -1.82550508629750   -0.86648230750510    0.67691954973965
H          -2.00884688899623    0.58293945794482    1.18924995098168
O          -0.73383823169796    1.98872571229776    1.63368015603709
H          -0.44050665079368    2.13879971098391    0.70412776359858
H          -1.04841172477304    2.82946254543109    1.96707545731924
O           2.46253743970857    0.89529167210321   -0.25138160117313
H           1.76937412075264    0.35127965116022    1.00844991457904
H           2.29986414953913    0.06858373426910   -0.75197124363166
H           1.78234736773181    1.50865203083899   -0.58394758483171
O          -1.43574519867107    0.34056642085899   -1.75524670640981
H          -1.14939614673863   -0.56512590248706   -1.97831908341510
H          -2.03679376821538    0.22560671231480   -0.98987260209501
H          -0.41038868831208    1.42539534006142   -1.27259955838383
N           1.08340015133649   -0.05994564766239    1.73578753767824
H           0.41696263968753    0.68185167034422    1.99684001617038
H           1.56226278802003   -0.43758658253437    2.54504041455457
H           0.53769364223929   -0.83046746698986    1.22172075718156
