    26
        -50.46272401  Gyration_radius:  2.48204101096 Dipole_moment: 6.096
 S           0.09582431456377   -1.70856035090565    1.59551703546691
O          -0.08116168686196   -0.42186774359193    2.22236299475528
O          -1.10878452014948   -2.46460565422105    1.36630086905888
O           0.92533290766593   -1.57345211251837    0.38206873824199
O           0.96919701212013   -2.59599824323748    2.59077048903680
H           0.52981886852406   -3.43622809898233    2.51049266976244
O          -1.54267317327889    1.72297133369828   -0.49017275937176
H          -2.38249813912413    2.15869371394214   -0.64164204333161
O          -0.10636386372522   -1.41307151085064   -2.12856500855379
H           0.33855128315391   -1.65597850260087   -1.29768202156407
H           0.19767474806850   -0.52091378309074   -2.34112329875143
O           0.46979598772043    1.40630982667187   -2.22810242738514
H          -0.30713162489428    1.57059010516949   -1.64333160459452
H           0.35359833547125    1.95058213017122   -3.00732129965804
O          -2.11507624803543   -0.78232276659237   -0.43325588554780
H          -1.76797298665239    0.74550808608372   -0.37746870614924
H          -1.58962042005428   -1.11735975975858   -1.18947214441077
H          -1.88729063749914   -1.37869156291623    0.30486063743502
O           0.22449913953724    2.10031377091957    1.56934441046078
H          -0.50600464545577    2.16015396162957    0.92712220130390
H           0.04099757050213    1.27175842949773    2.05971333986952
H           1.31023801023245    1.43369866804644    0.70956968332166
N           1.88320707197600    0.80558951764435    0.04159228488543
H           1.63009439210452    1.05841191448084   -0.92513902177303
H           1.54502960230780   -0.19878794140645    0.22147745008005
H           2.88071871178266    0.88325656271803    0.20208340741249
