    26
        -50.46272417  Gyration_radius:  2.48172106725 Dipole_moment: 6.116
 S           1.93378345069050    0.70672412954398   -1.11102268755658
O           1.51590066372894    1.05510895861273    0.26134305263422
O           2.76228513657973   -0.47059801354424   -1.15938479913568
O           0.79324033391168    0.70853990810142   -1.99353452202677
O           2.87749876622260    1.90775752181616   -1.56734958613878
H           3.73476917234468    1.50646928788435   -1.47031586657518
O          -1.61872455987356   -1.67818399333940   -0.39628254245507
H          -1.98616415385086   -2.53451738803346   -0.61943300652265
O          -1.79906624805160   -0.38821753585823    1.94305029383809
H          -2.45492870883447   -0.78550725152477    2.51667654567369
H          -1.78446884033244   -0.91819351776523    1.11142216314016
O           1.04045631412346   -0.79476802003743    2.19649442034707
H           0.09958845708343   -0.61601008117487    2.32439423634198
H           1.37345075165635   -0.07872364333302    1.62748826778115
O           0.90693663318415   -2.10037883518272   -0.16683516736149
H           1.59372967756174   -1.60833587099334   -0.65506068640525
H           1.05645808532310   -1.86278643811823    0.77196261399189
H          -0.61852206862332   -1.81246522260927   -0.39161601842104
O          -1.82079824199518    0.68212886445742   -1.77351849739695
H          -1.91525072680498   -0.22808415096849   -1.43867494892501
H          -1.41749024108095    1.42262088249367   -0.48802863288635
H          -0.90780337227006    0.70980219278551   -2.12866515599476
N          -0.97015458234329    1.74808462208043    0.44079778677057
H           0.07883197197922    1.52994184932278    0.35371013888683
H          -1.35461413554262    1.16423275979404    1.19848056963910
H          -1.11894353481074    2.73535897564738    0.61390202885670
