    26
        -50.46272426  Gyration_radius:  2.48162286495 Dipole_moment: 6.110
 S          -0.77266176421351    0.81325972071372   -2.05274257944767
O           0.59410010334070    0.92628590900543   -1.50680996852025
O          -0.95711627843200   -0.37007964741483   -2.85309143518864
O          -1.74420879436605    1.02202049184916   -1.00763944258175
O          -0.90954444389424    2.03591252847367   -3.06650498862185
H          -0.80557766243735    1.58847395453662   -3.89977402877230
O          -0.85110921476681   -1.50844853212605    1.61047002142331
H          -1.26274857407602   -2.29375864280199    1.97371918191263
O           1.65829891026430   -0.65720479779558    1.99525482774991
H           0.74853107581250   -1.02817325838158    1.90946741348575
H           2.08571831226115   -1.12712765304665    2.71179482043135
O           2.10206165865117   -1.22059401832382   -0.79293027026730
H           1.70871496228790   -0.42847084010301   -1.19926295038624
H           2.17000624637490   -1.02810542120365    0.15148047201967
O          -1.78354843109427    1.06800512652019    1.61488550014023
H          -0.35108678680479    1.54569204563266    1.32598347511081
H          -2.03889603872485    1.12060705114785    0.67015178368163
H          -1.63235792764003    0.11713724052572    1.76472712200945
O          -0.46210863403233   -2.07210105135715   -0.86766505216900
H           0.51427600207519   -2.01380225604115   -0.92678522208081
H          -0.77540197785474   -1.68377648014060    0.61961455180001
H          -0.78409396328196   -1.52972473297189   -1.61214264859390
N           0.66004978982875    1.67885800898999    0.96746165007669
H           0.99650970586031    2.62416176790433    1.10904976136908
H           0.63465490324647    1.43606753923173   -0.07948874926484
H           1.25753880159892    0.98488597719348    1.44077674469588
