    26
        -50.46272427  Gyration_radius:  2.48158937987 Dipole_moment: 6.115
 S           0.13206796898377    2.26605576393718    0.56541508227892
O           1.52018713746506    2.46779507073128    0.89289368247130
O          -0.05966816653288    1.69327000363379   -0.78150108339926
O          -0.64077363441894    1.52830980458543    1.53398925129257
O          -0.50003095251555    3.72713455048672    0.48116145589553
H           0.28675067569540    4.25769778356329    0.41184239187301
O           0.49658093425497   -2.02010830280244    1.12592643902144
H           0.97618982869245   -2.65232582252439    1.66293729805413
O          -0.14082110750248   -2.23473360189591   -1.46591947943227
H          -0.00512623099851   -3.12499968077498   -1.79143318336213
H           0.11948113773228   -2.23286274173420   -0.51467531939006
O           1.68139325683049   -0.05384082215829   -1.92562752979907
H           1.12306295544084    0.70133439438819   -1.67013678840739
H           1.08793566178407   -0.81392809420300   -1.98580627746021
O           2.17005088300829   -0.10829163185552    0.73229907710131
H           2.25891156682111   -0.12860962811070   -0.24341599677425
H           1.99499240697671    0.82849998973280    0.94152517453470
H           1.11216223056916   -1.22518134052156    1.03993704739220
O          -1.88542703561532   -0.77720662454966    1.66452835507255
H          -1.09807790466446   -1.35127199018204    1.66215526617070
H          -1.52896752419234    0.11149500215294    1.87346115265334
H          -2.00961984064069   -0.45156823482127    0.16711976732700
N          -1.84651613398551   -0.17565174416007   -0.86532594780026
H          -1.38180859692858   -0.96703665673847   -1.33473134673036
H          -1.15681510708246    0.64872850022246   -0.84353841012976
H          -2.70611439903563    0.08729605357479   -1.33308008843716
