    26
        -50.46272416  Gyration_radius:  2.48167386501 Dipole_moment: 6.113
 S          -0.00546678579150    2.26674149916074   -0.57787515170773
O           1.19026239942041    2.43252885128772   -1.36376899552715
O          -0.89308168855025    1.21075603518432   -1.10379754041168
O           0.19435088962136    2.08807245345226    0.83909068767769
O          -0.82653665052305    3.62020885436498   -0.76539042600839
H          -0.39729073009322    3.98313048265572   -1.53311171844416
O           1.50375959770338   -1.41070599042771    1.15896305234391
H           2.33208842604378   -1.81149139406075    1.42603616112766
O          -0.58534402275278   -2.61101856203069   -0.00883642432550
H           0.21715740372761   -2.24257041881443    0.43037290297321
H          -0.51124128427861   -3.56508809792409    0.02743574492825
O           0.01998597936290   -1.03251353413289   -2.33948530612920
H          -0.38391669003234   -0.18323223956674   -2.08865098456232
H          -0.30144900820116   -1.67888605310154   -1.69725665599420
O           2.09712608096179   -0.03161571159207   -0.92818738892519
H           1.74116294070070   -0.79619945725065    0.39448916489386
H           1.54136322579233   -0.46472923515886   -1.60911107977162
H           1.90958207548827    0.92051807790044   -1.02989678996457
O          -0.16755130285605    0.19582602752363    2.62026864265350
H           0.04705189209631    1.04645369093461    2.18360865102624
H          -1.28654566060896   -0.11814247776183    1.61322347802635
H           0.53110396028376   -0.40945971473502    2.31202772270234
N          -1.88429480767472   -0.31568825360016    0.73454398771930
H          -2.87388268317570   -0.17872950875033    0.90423099342229
H          -1.67887942763862   -1.27628331224420    0.42182830977427
H          -1.52951412908678    0.36211799860155   -0.02075104750052
