    26
        -50.47399125  Gyration_radius:  2.38948943801 Dipole_moment: 4.398
 S           1.16536688495970   -0.63148700775827    0.55287346183044
O          -0.20223526761600   -1.09883336934156    0.27637347802976
O           2.07969884081024   -0.96070692327062   -0.50377982665117
O           1.13454806614890    0.82228134528002    0.81206359720582
O           1.63207849734019   -1.31568941848548    1.86061357556599
O          -2.02173577976695    0.82728643465503   -0.20055580171096
H          -1.52801100617089   -0.00753213207511   -0.07944804489149
H          -2.00080626262307    1.24866655303442    0.66972979980013
O          -0.47032909265512   -2.17307885916096   -2.16860977488241
H          -0.00013488740474   -3.00850422772786   -2.16838798933795
H          -0.42568292907311   -1.83926539148848   -1.25058515559212
O          -0.88233189796101    1.56220148702877    2.27770696540720
H          -0.07738625173240    1.32695236697361    1.74927034295799
H          -0.61479457368968    2.25153565823002    2.88716051240722
O           1.15766856091859   -0.17638673775391   -2.87416642807687
H           1.73542212035817   -0.46873961062994   -2.13898003448748
H           0.47826776053969   -0.88345488115998   -2.91142962097854
H           0.49456643736912    1.01010521617243   -2.16572898499094
O          -0.73840934905025   -1.09945479546532    2.90659496151239
H           0.83023798841088   -1.28267959020946    2.44325984088268
H          -0.94098255807925   -0.14634115499598    2.92611153463496
H          -0.99560536865131   -1.39023738390009    2.01992390080930
N           0.13148265875561    1.72364807444231   -1.43757448624800
H           0.68576144262070    1.53279977338846   -0.56241078399079
H          -0.86300914946810    1.49726706712723   -1.16103595814942
H           0.23635510570892    2.67964749708125   -1.75898907105185
