    26
        -50.47000555  Gyration_radius:  2.46328766801 Dipole_moment: 2.736
 S          -0.40400725015753    2.14467692527861   -0.38345516930239
O          -0.30442411026678    1.83468484798552    1.02204228869817
O           0.82248651778400    2.60098851092036   -0.99033256517383
O          -1.03491073925747    1.03757610050867   -1.11907618765425
O          -1.43002718112118    3.35418630191752   -0.53733961942908
H          -0.83369326953673    4.08683707014062   -0.64885481339109
O           1.52898094650609   -1.36367741345733    1.47705811116196
H           2.34756705431438   -1.61804230048563    1.90460353419599
O          -0.00199654497409   -2.59261630086313   -0.45049103644842
H           0.62676424681107   -2.34699171445149    0.25336525058808
H           0.27618805524303   -2.09100771056738   -1.23479228282295
O           0.55996308199708   -0.65380558428074   -2.34340163430005
H          -0.05126267076610    0.01363923212458   -1.94894217234969
H           0.58407371373982   -0.47422208974109   -3.28399427042765
O           2.17045149911378    0.39763068319292   -0.35391788929343
H           1.88869186489052   -0.06936568076297   -1.15579038585108
H           1.79211121637136    1.29144339668989   -0.44786323647699
H           1.76442451623787   -0.62037296623037    0.85981832240425
O          -0.69288970251875   -0.23267018209786    2.62468989747580
H          -1.53465394336423   -0.70727331717852    1.40010581337100
H           0.14346272272074   -0.70017681358716    2.44725706102216
H          -0.54728338350955    0.66130556862368    2.25454181104681
N          -1.87667763611212   -0.94314190984064    0.40980233107278
H          -1.26588769867633   -1.73250246890746    0.04718424656898
H          -1.66513218269330   -0.10136169664851   -0.18795575511100
H          -2.86231911277840   -1.17574049833913    0.38573834047350
