    26
        -50.46272415  Gyration_radius:  2.48189937592 Dipole_moment: 6.110
 S          -0.23602798952016    2.30601030421142    0.31959266162924
O          -0.07161843764650    2.85874146770620   -1.00038885830054
O          -1.29878935632236    1.28334197010464    0.38209897829627
O           0.96509061188106    1.81393280350532    0.94803146008104
O          -0.77274603798848    3.50807218816022    1.21837893615065
H          -1.06008414453180    4.11754513156768    0.54658221063456
O           1.70816126853150   -1.38526272926227   -0.86956768982743
H           2.39819905309560   -1.69698558493378   -1.45668323870894
O          -0.61976118917549   -2.58457115156749   -0.31225631362253
H          -0.63453070742745   -3.49045883208863   -0.62237117490727
H           0.25889494935782   -2.20995518104378   -0.55803887543332
O          -1.88872861760958   -0.39056071053657   -1.67761420243145
H          -1.65613683066902   -1.22242428396013   -1.24452262583256
H          -1.86884429831043    0.28814284071307   -0.98027111717826
O           0.60104221414093    0.55272752145691   -2.14491196664725
H           0.49428987654428    1.45447953425603   -1.78748773254766
H           1.32530198645079   -0.56791730755479   -1.32122776704874
H          -0.31496573212222    0.21913489812805   -2.24435148042910
O           1.93290230690999   -0.50062388583626    1.71427625062175
H           0.42353226117803   -0.73503807647375    1.88511158017449
H           2.07858214776249   -0.88236552804666    0.82966492269621
H           1.80986041544628    0.45630687583031    1.54160717025776
N          -0.64930251829469   -0.80209260933945    1.76873400100738
H          -0.94485088684467    0.09393400157906    1.25368152894909
H          -1.12824229221736   -0.87987540518637    2.65835839596800
H          -0.85122807262956   -1.60423825141496    1.15357494645898
