    26
        -50.47150111  Gyration_radius:  2.42622562521 Dipole_moment: 3.428
 S          -0.52550873295277    1.73634110429028   -0.50010807808768
O          -1.93367779236981    1.85480932548885   -0.15519482596455
O           0.30077913836778    1.57299306891680    0.68679988580930
O          -0.27514116666551    0.71595860139608   -1.49828187238855
O          -0.10168662278153    3.10518760842623   -1.16388998922120
H          -0.32787838515482    3.73686021737870   -0.48953947482781
O           1.08734166808806   -2.06948033875060    0.89123474090871
H           1.68209551632953   -2.78377924896208    1.12136973780293
O          -0.97378512272908   -1.79951889861911   -0.88943490332652
H          -0.22223145699229   -2.06039319130069   -0.32418446410422
H          -0.70232732736062   -0.95448192357342   -1.29828529602511
O           2.19233479184775    0.40325378485084   -2.45337552307713
H           2.12939632947136   -0.24075504987175   -3.16053523488744
H           1.27326314320461    0.62266485035589   -2.20110444952114
O           2.45857117423159    0.02815281384191    0.23197190173326
H           2.59392270155026    0.11669121927878   -0.72908060158214
H           1.78235179943771    0.69709925341799    0.44992612470563
H           1.66969251378706   -1.29874851902979    0.61584441186131
O          -0.36097709939282   -0.34440520363722    2.46698716325580
H          -0.04625248037689    0.46243001487651    2.01459428701579
H          -1.72369607317750   -0.49479557292577    1.67790555867057
H           0.19350042346234   -1.05937196392538    2.10246023323129
N          -2.41872671874424   -0.50038259421988    0.86650300121739
H          -3.35596690578027   -0.76212493247801    1.15006313127460
H          -2.00902986145715   -1.15731168546275    0.13273411697615
H          -2.38636344382130    0.47310727022106    0.45462042858378
