    26
        -50.47399120  Gyration_radius:  2.3894251306 Dipole_moment: 4.398
 S          -0.00311640339618    1.41062110462558   -0.27018576141280
O           1.35618152437533    0.88560910821531   -0.02899008495455
O          -0.24406499569337    1.63130169532934   -1.66808251930062
O          -0.98537367952206    0.49393061915019    0.32975928197245
O          -0.10899559670897    2.75884445102560    0.48307135852954
O          -2.68006986653439   -0.55446519506986   -1.46801334970218
H          -2.12601158377788   -0.16972928967901   -0.76001281428654
H          -3.26095416382529    0.15004570798579   -1.76022488448661
O          -0.03666921166451   -1.91483018267754    1.06979878380339
H           0.57470952318418   -1.61187233009024    1.75524167197605
H          -0.57631718311958   -1.12761233290807    0.85904917676081
O           1.67433065503794   -0.07785790561890    2.36538678791972
H           1.61612123120752    0.31116406339882    1.45558267622273
H           2.54604691361529    0.13990809444197    2.69830635164874
O          -0.48860584050096   -0.66484465970491   -2.99143531373007
H          -0.35193547097026    0.27662565501523   -2.75745794073992
H           0.52083953633392   -1.27661054073079   -2.01361535385498
H          -1.37618763737503   -0.85533047404396   -2.61891594964518
O          -0.49717254855692    1.54648300260761    2.74994298921672
H          -0.21716248858607    2.49103107488157    1.43188435663666
H          -1.08010447808616    1.00885203783642    2.19490298224821
H           0.28964223414148    0.99085646520384    2.89857467903812
N           1.21915745795798   -1.45434446887338   -1.20617530702911
H           1.47479392179270   -0.49823209558873   -0.84562866560513
H           2.03021330247142   -1.97870996559122   -1.51509462367750
H           0.73070484819911   -1.91083362915611   -0.38766854753073
