    26
        -50.46272425  Gyration_radius:  2.48160754632 Dipole_moment: 6.120
 S           1.21101020746399    1.90757554914138   -0.60583959419284
O           2.57553731830166    1.45150636141502   -0.67651108523742
O           0.30073201259576    1.12036795185383   -1.46065850785940
O           0.66007783991725    2.03677153313899    0.72063030636436
O           1.21758571907268    3.36538277520389   -1.25085738725181
H           2.05161580464239    3.35360465450451   -1.70868278962536
O           0.07223631936046   -1.49527614866147    1.83099672661072
H           0.43726416226339   -2.07224463947833    2.50327757274188
O           0.62685158482214   -1.53469897476040   -1.94664645530425
H           0.55404849275348   -0.56466644367030   -1.97853126687464
H          -0.18655540836930   -1.84811888142439   -1.52990463970295
O          -1.55931529096870   -2.16743207474704   -0.18299877134530
H          -1.92054056429425   -3.04680145389089   -0.06772844628609
H          -0.96762394545297   -1.99565900114471    0.58708162622746
O           2.05578902266395   -0.97765776799360    0.27925999114100
H           0.86059728864586   -1.21341588729404    1.26764434414348
H           1.73933036904685   -1.35333046602342   -0.56868410667594
H           2.35522230660357   -0.07767698011947    0.05031915746587
O          -1.22150999284971    0.89896803067987    2.15121553414086
H          -1.78627286259910    0.73981584063251    0.73034694177843
H          -0.78812049853785    0.03486447594876    2.27380916013361
H          -0.49769379376786    1.48489788559604    1.84573749752763
N          -1.94804751856663    0.54164628024642   -0.32006170152106
H          -1.04441255738396    0.84315669475908   -0.81812601478244
H          -2.74652210219944    1.04572303282133   -0.68771763045416
H          -2.05128391316618   -0.47730234671169   -0.43737045117384
