    26
        -50.46272428  Gyration_radius:  2.48159044862 Dipole_moment: 6.120
 S          -0.76117735572296    1.73057286779062   -1.37768748754317
O          -1.56158803667474    0.63326242635842   -0.79956568046598
O          -0.72252561887618    2.89700635443139   -0.53337304152816
O           0.51806925645592    1.23323346975899   -1.82033543517916
O          -1.56290892609394    2.17742704703371   -2.68109167871703
H          -1.97944160401416    2.97406891188307   -2.36935679451929
O           1.98699572126948   -0.39238903235974    1.22133235809109
H           2.73416329643210   -0.22172297543947    1.79640525400144
O          -0.00819948072686   -2.13432979657985    1.61474961123597
H           0.18811549077203   -2.74250677305601    2.32792925373025
H           0.76282219442222   -1.52451577635865    1.53548943806848
O          -1.73578513726417    0.15462084532967    1.87111038502178
H          -1.32204549920391   -0.71848952763365    1.87797319265564
H          -1.87815010795344    0.37537530329146    0.93395846270097
O           0.47382331613533    1.66727369816280    1.50161677590190
H          -0.33998169578658    1.25968117463300    1.86474067062908
H           1.43020366330065    0.44855651841759    1.25423550655869
H           0.15949105737347    2.22384697201479    0.76442236116148
O           1.98368009163837   -0.91381077807788   -1.46880866176395
H           2.21993797534637   -0.75968671432640   -0.53609554209802
H           0.56638887590474   -1.48920677746527   -1.31644158737902
H           1.64643815975083   -0.04548272983481   -1.77348635629587
N          -0.46151413656689   -1.69463639596713   -1.05178576922045
H          -0.95072497193555   -0.73832500064446   -1.01106080110360
H          -0.46933930294018   -2.09682017720845   -0.10265943520399
H          -0.91674722505748   -2.30300312405631   -1.72221499870595
