    26
        -50.46272387  Gyration_radius:  2.48200008887 Dipole_moment: 6.093
 S          -0.27210858894155    2.24817577224716   -0.58808893488534
O          -0.03395180096564    2.10677308079113    0.82735358997154
O           0.88689536349727    2.54094350691896   -1.39191396252704
O          -1.04105016341290    1.09363137849595   -1.09240005632774
O          -1.24284774431932    3.49870373988039   -0.77496436098923
H          -0.85214390935126    3.91341498584059   -1.53688581421914
O           1.67135757549915   -1.22284856041071    1.14039338146278
H           2.54359589168944   -1.52474080783427    1.39752301931208
O          -0.28595370617370   -2.66158839216218    0.01365583229146
H           0.47593052593503   -2.20106395406606    0.43793368720272
H          -0.10189120243781   -3.60055537214349    0.05184397392955
O           0.09878934954162   -1.03985882805304   -2.33405112439079
H          -0.39424924083822   -0.23998829932195   -2.08023749427826
H          -0.13697217922908   -1.71420431317280   -1.68347766323963
O           2.07348654748306    0.19756591262932   -0.96412775773070
H           1.55860847668555   -0.29981723499731   -1.63322553053674
H           1.77736295803345    1.12173831594793   -1.06645255466921
H           1.82648219760201   -0.59202030879057    0.36788888959187
O          -0.14882702146489    0.19428623209932    2.61887483037784
H          -0.04019922597624    1.06078585198659    2.17377111359283
H          -1.24077961031260   -0.25399727229663    1.63498861795677
H           0.60947872184006   -0.32946046041796    2.30220657558403
N          -1.82672526647835   -0.52427218097403    0.76733725789763
H          -2.82261094266604   -0.49889580724702    0.95269726488355
H          -1.51876692953858   -1.45732268956060    0.45577039239564
H          -1.56291008570130    0.18461573461116    0.00358682734459
