    26
        -50.46272374  Gyration_radius:  2.48226637022 Dipole_moment: 6.090
 S           0.57949489726478    2.08545720708366   -0.88967589743212
O           0.75258889715755    2.06812200994295    0.54203943823850
O           1.76120590734706    1.81119656639006   -1.66660263060973
O          -0.56631117037585    1.23793908384629   -1.27378114089306
O           0.14505559574866    3.56605873402555   -1.28936348480931
H           0.65586234390639    3.69165967006431   -2.08215833324042
O           1.10322278237093   -1.58083507089796    1.36785603185230
H           1.80156067059200   -2.14385763896381    1.70461523454350
O          -1.25517846168530   -2.33788747856397    0.35036587957334
H          -1.43338406547709   -3.26332313893642    0.52010488226717
H          -0.37416059947011   -2.13674976130808    0.74523800584202
O          -0.30823105391789   -1.31636989199558   -2.16947214115911
H          -0.46658080494532   -0.36402748061288   -2.04585653354637
H          -0.77421725831140   -1.75842585301155   -1.44765321051296
O           1.99433723629303   -0.72134761431733   -0.88455235066660
H           2.06232537091373    0.22337456334763   -1.11982541236483
H           1.47837791221749   -1.16814087601665    0.52637515128681
H           1.32683788655866   -1.08052959109832   -1.50551641986235
O          -0.05134525501752    0.59876809628537    2.56086614302083
H           0.45636470582359   -0.20596191990951    2.35042709804855
H           0.36855529200832    1.29385062100871    2.01196598208021
H          -1.23724323188172    0.45280845179435    1.59460788527976
N          -1.88658730733628    0.29965232940763    0.74365345261830
H          -2.80064577315634    0.71598325067080    0.87773117911272
H          -1.94937497520399   -0.71481734989744    0.57212174033467
H          -1.38252953142351    0.74740309166187   -0.09351056900025
