    26
        -50.46824851  Gyration_radius:  2.38800566662 Dipole_moment: 4.312
 S          -0.71987993820964    0.80098084799277   -0.71539573247249
O          -1.25219225788970    0.14955490255913   -1.88403403992874
O          -1.35223920898903    2.06754375093887   -0.37173929580053
O          -1.00267039751523   -0.12022197078891    0.52961384008312
O           0.74204305230269    0.95236032664829   -0.75837607077544
O           1.20812504399894   -1.18163867686833   -2.29171963141251
H           1.18264874861875   -0.30767738413803   -1.85861113746816
H           0.47562793111267   -1.16840687995402   -2.91442452774358
O          -2.17294604194849   -2.34691789478509   -1.61372060191881
H          -3.11463677372271   -2.31584474185963   -1.44196285408628
H          -1.90218643752709   -1.42605207185504   -1.80851813060916
O           1.94726816199609   -0.45766573863075    1.19632402650758
H           1.62585783921974    0.04328811293853    0.42071165455216
H           1.72088074014894   -1.37592178102036    1.01927261882374
O           0.27648736533923    0.72355388840439    2.86966835260726
H           1.01372487601051    0.20835163009548    2.45785818157534
H           0.42318249023868    2.02182686813988    2.02948829930610
H          -0.52095183727596    0.33888357206325    2.48270002139227
O           0.09787981601398   -2.32383329973847   -0.16712116515492
H          -0.70531972112574   -2.70731954077836   -0.56307666300633
H           0.63774801451749   -2.05121189818143   -0.95023973684276
H          -0.58016640872105   -1.01899984619183    0.32031723446456
N           0.49544972665445    2.74268369674040    1.23036268466534
H           0.59131558687496    3.69655060616680    1.56328542522993
H          -0.38323102916172    2.59188279887511    0.59862645810109
H           1.26818065904265    2.46425070322597    0.62071079991332
