    26
        -50.46272410  Gyration_radius:  2.48192341505 Dipole_moment: 6.108
 S           0.77219214578541    2.17316793663408   -0.39422313172916
O           0.77790186609900    1.86784795708267    1.01517299048661
O           2.02198611978000    1.97735916335558   -1.08321630813041
O          -0.35792491578782    1.49361098849899   -1.05768517730813
O           0.45147170534909    3.72836546584307   -0.53249390886755
H           1.04086201647583    3.96875624751752   -1.23953949622837
O           0.86556591371536   -1.88303132153094    1.13780005093242
H           1.49461962973900   -2.54525332557706    1.42738751008405
O          -1.38933434842839   -2.27283959262017   -0.25284569471395
H          -0.55277979879859   -2.21015956339826    0.26563970453900
H          -1.62719365122676   -3.19974212794895   -0.28924408185478
O          -0.11138459037793   -0.85393622369040   -2.40695705993386
H          -0.24069182962635    0.06563121827068   -2.11538089486231
H          -0.67720592980685   -1.39385376786453   -1.83952558560955
O           2.04916251633718   -0.66769057837706   -0.79342548348666
H           2.18629856415315    0.29782234079754   -0.82988735881835
H           1.35345530163849   -1.34166961022646    0.43944787533341
H           1.44344583381947   -0.85694148318430   -1.54012606768203
O          -0.32181799538912    0.09911286431574    2.61029651377454
H          -1.39170172058774    0.22074349927151    1.51329453864972
H           0.17018659141135   -0.68269370557855    2.29988782886759
H           0.19033176766052    0.85646946567185    2.25724643727894
N          -1.94333761976681    0.27682338410076    0.58518516182199
H          -2.84718175651237    0.71997131452266    0.70148699668852
H          -2.03114626560758   -0.67965143618718    0.21103898353471
H          -1.32577957004260    0.84178091030182   -0.08933432276462
