    26
        -50.46272419  Gyration_radius:  2.48112589293 Dipole_moment: 6.123
 S          -0.63057643859304    2.12903759717978   -0.73386673722353
O          -0.45227964657466    2.09596321687004    0.69685498280256
O           0.49871426535463    2.59674936802165   -1.49581714227086
O          -1.14601397442931    0.83152381206138   -1.21307488345785
O          -1.80252228938784    3.16815766023322   -1.03222620937367
H          -1.46239457285241    3.60387945931782   -1.80669438995080
O           1.78581979413516   -0.84077676086987    1.30434128750381
H           2.68056104976650   -0.96268283650497    1.62470938200332
O           0.20126781214801   -2.66547481212470    0.15055137910421
H           0.54875262389477   -3.55205322039165    0.25264144460544
H           0.83746141349236   -2.05408027051142    0.59092182916317
O           0.44155131170897   -1.11144639366797   -2.26075752747455
H          -0.20464951051493   -0.40563386937778   -2.08328246485668
H           0.28917903995123   -1.78626364389626   -1.58619977520001
O           2.05605273430036    0.53600290239667   -0.85099373639494
H           1.60657427548753    1.38376358810271   -1.02697681639507
H           1.87113258284916   -0.22597773391185    0.50905358879123
H           1.68869455984836   -0.07947563202588   -1.51914632433594
O          -0.35505783509021    0.28523670301070    2.59148034384446
H          -0.37110700381176    1.13434168713821    2.10207798379542
H          -1.27868620710284   -0.40080760048509    1.57292114691009
H           0.50446809915347   -0.10667694641299    2.35247600901512
N          -1.74650935632626   -0.81458396667419    0.69025384227967
H          -2.74070050432505   -0.96447868231050    0.81655515482889
H          -1.25491934161308   -1.68853532252189    0.45141446516768
H          -1.56481287146467   -0.10570830263813   -0.09721685288378
