    26
        -50.46272420  Gyration_radius:  2.48168883308 Dipole_moment: 6.109
 S          -0.36510092778669    2.30409671708939    0.17140874886499
O          -0.95424476673832    1.59751688611030    1.28205091703767
O           0.94685236241342    2.85215129389457    0.40230553352007
O          -0.43270651574076    1.47868488876806   -1.05047614289649
O          -1.30092537240879    3.55872499084682   -0.13135857047877
H          -0.64857655511704    4.22652512963393   -0.31526611736244
O           0.93121640186710   -1.63841314283444    1.42625934871874
H           1.53794807194150   -2.04938649366844    2.04358150871524
O           0.34554749399280   -2.43244362000307   -1.06298169074949
H           0.67037769469058   -3.31591685290840   -1.23904698163250
H           0.60406992086400   -2.20918932239056   -0.13782078969975
O           1.64334307109243   -0.02370331582444   -1.95980351257202
H           1.23089527114264   -0.89243841875176   -1.86632141300542
H           0.93435083537041    0.62617733607893   -1.81067579747997
O           2.14629792645686    0.48877770031375    0.64639026357563
H           1.35881749191238   -0.75759689653901    1.18156081158798
H           2.23228015412869    0.31970665036801   -0.31496364690213
H           1.77080607629482    1.38760343850790    0.70325678383080
O          -1.66272023078180   -0.86388104692402    1.84939165279913
H          -1.50933409764395    0.10319957905437    1.89087129008861
H          -1.86181186496870   -0.83768544827616    0.32515130173721
H          -0.76832823006989   -1.24606464852198    1.90965850285555
N          -1.76711375777266   -0.71642003517080   -0.74489998570918
H          -1.14221232186755   -1.45848230913095   -1.09347714321083
H          -1.27454727862695    0.22792927559400   -0.89070693959534
H          -2.66518085264445   -0.72947232531545   -1.21408795203487
