    26
        -50.46824848  Gyration_radius:  2.38803762001 Dipole_moment: 4.310
 S          -0.92470838100874   -0.55035898145107   -0.71703384035071
O           0.47051443192954   -0.94761862729934   -0.95711815932284
O          -1.43418615648811    0.34730635580513   -1.72105489512117
O          -1.75031282680758   -1.72261315622624   -0.45975443113401
O          -0.90452337310405    0.21504451498168    0.65864846236374
O           1.18212374225305    1.27251490175513   -2.25695267850249
H           1.03373929908679    0.36284823917295   -1.93687367616605
H           0.40306083344753    1.47814163806604   -2.78161679862627
O          -1.83397513336363    2.89999223774234   -1.02924535569284
H          -1.76310205041894    1.98442523392889   -1.36961850056833
H          -2.74325327234365    3.00897757037568   -0.74866040725158
O           2.10500481342798   -0.06975981111832    0.99704550134246
H           1.62043308093982   -0.38831030287974    0.20989806318034
H           2.04162654736876    0.88979929980589    0.96515330089638
O           0.41139769666513   -1.17027271621736    2.70228964449535
H           0.22592104286941   -2.33765278743210    1.69427625790191
H           1.18917581587545   -0.73768159001236    2.27047592648929
H          -0.33228329322563   -0.59967550976879    2.46798250108259
O           0.52152010604487    2.27004229988167    0.11374126213207
H           0.92086509167857    2.02401577365526   -0.75748726478994
H          -0.22870310033046    2.84169662391486   -0.12975455998955
H          -0.34165943555605    1.04689932417262    0.51323090065028
N           0.08216339609270   -2.93542359175781    0.80802665539110
H           0.82998254411199   -2.70866626881094    0.14782525367344
H          -0.80952930091360   -2.54389694108493    0.31279351916772
H           0.02870789175968   -3.92977373920370    1.00378330874189
