    26
        -50.46173116  Gyration_radius:  2.498025744 Dipole_moment: 7.251
 S           2.06674371679866   -0.66994429463064    0.93116502397130
O           1.59494141419693   -0.93476265284106   -0.42897746907904
O           2.42872596306194    0.74476946432741    1.06618364436767
O           1.16372811281368   -1.12901239070880    1.94538114884884
O           3.42062413654787   -1.47353369533650    1.09097923736203
H           3.95927054292951   -1.07267274146458    0.41707209252416
O          -1.95341394300392   -0.16674818480139   -1.66581302199021
H          -2.70386375157233   -0.48233260416229   -2.16988549906750
O          -1.50681235918439   -1.33159405216092    1.87927522174673
H          -1.70201461011697   -0.40849008122694    1.67244314693656
H          -0.56051401505500   -1.34592894063149    2.11183055845854
O          -1.99715051053872    1.21818648144789    0.61124430108857
H          -2.04521597775667    0.71790094333947   -0.23945079248922
H          -2.87412857524531    1.56535546942360    0.77887830034969
O           0.57109494253445    0.78916361165683   -2.18424752239063
H           0.54434599022436    1.74057667274398   -0.95658419199417
H           1.05638038169020    0.07779960030020   -1.71422872534863
H          -0.34503683516701    0.46598834462427   -2.24568137362165
O          -0.79209685930184   -2.15630740717776   -0.57010075383352
H           0.13904896595214   -1.86255997272452   -0.52001593535016
H          -1.13202687355668   -2.07478286392656    0.34931118835042
H          -1.51047699026583   -1.00043164140185   -1.27662830776651
N           0.53285590987455    2.13777543800970    0.04319638834258
H           1.32155306867814    1.60498027655504    0.55309612001279
H          -0.38388485974895    1.91016221228566    0.46112991298577
H           0.70732301515481    3.13644301847612    0.06042729759432
