    26
        -50.47150116  Gyration_radius:  2.42632696216 Dipole_moment: 3.426
 S          -0.41103246025479    1.76295735888575   -0.51307237554524
O          -1.72229195865772    2.05836127791434    0.04304134644686
O           0.57622060850243    1.55292642385137    0.53551550591091
O          -0.43952032048960    0.68073497107225   -1.47650953963475
O           0.04366429139219    3.04509000271038   -1.31519630923747
H           0.00105608802055    3.72607223704726   -0.65241269934990
O           0.98972013334523   -2.14399046904314    0.82848800664149
H           1.53355137614469   -2.91279357976941    1.00196777816640
O          -1.29508592643316   -1.70919018590660   -0.61423703565384
H          -0.49319581362420   -2.03208681740240   -0.16131206435843
H          -1.00527919555933   -0.91916320771218   -1.11100453478904
O           1.79000875876976    0.04783207504173   -2.79058172427847
H           1.54337085518078   -0.61243510280160   -3.44020224072791
H           0.95355270635081    0.38151277673087   -2.40909952807758
O           2.45095790913041   -0.24804786800335   -0.16416394956249
H           2.43557647965672   -0.21462203498915   -1.13804237273866
H           1.89539425010766    0.50281995258400    0.11848562839873
H           1.59814222274544   -1.45786420090701    0.41869378797581
O           0.01530147984327   -0.19956296530953    2.51010961593151
H          -1.46692499934334   -0.22206722584699    1.95761427855950
H           0.42166457954134   -0.98841953379598    2.10516310090972
H           0.33644440284074    0.54600907222345    1.96645108864871
N          -2.28241803041838   -0.18010965988303    1.26870350162456
H          -3.18296899873436   -0.31937555095268    1.71249530061970
H          -2.07225832203597   -0.90977151919126    0.51947012005932
H          -2.21365011602198    0.76518377346018    0.79963531406221
