    26
        -50.46173114  Gyration_radius:  2.4980288302 Dipole_moment: 7.252
 S          -0.21847194433904    2.35359441674216    0.00476885729751
O          -1.38102160063276    2.21269756270135    0.88758750466850
O           0.90538004100164    1.58010264779999    0.53525883853470
O          -0.50613642731581    2.06802510231243   -1.37018476462087
O           0.20945599446819    3.87398827916234    0.10262683685908
H           0.33257432384726    3.97613585258185    1.04039907311892
O           1.32518265910286   -2.20388418655078    0.06970767504420
H           1.93174367827828   -2.91575207120519   -0.13579908928555
O          -1.21837433247048   -1.97033828460616   -0.69233855262081
H          -1.54749313503773   -2.80337859082860   -1.03200531907807
H          -0.27774737956326   -2.11978753545910   -0.42948795830258
O          -0.18246200736551   -0.21244159474838   -2.73878000308732
H          -0.37201454295345    0.69629276073347   -2.44221667578348
H          -0.72418657824666   -0.78013627928150   -2.17555410252578
O           2.02502603519629   -0.11663026285519   -1.21906270959515
H           1.37015438077640   -0.13382625092450   -1.95272348719506
H           1.72767068131096    0.60840764816209   -0.63449797616775
H           1.66705559689647   -1.39088497779952   -0.44493437515135
O           0.83485777490071   -0.51421363038071    2.18141374900000
H           1.16099359545120   -1.21941861154772    1.59497287312241
H           1.02979984031853    0.31965557411020    1.70271685715066
H          -0.68896709527882   -0.46343538413402    1.88426091866695
N          -1.64885684309281   -0.27935198806166    1.43463093734646
H          -1.71215235080051   -0.85838373292995    0.58156805916383
H          -1.62834949705991    0.76901379866367    1.17708693439635
H          -2.41366086744950   -0.47605025172559    2.07058588899840
