    26
        -50.46173136  Gyration_radius:  2.49827786808 Dipole_moment: 7.262
 S          -0.81059022216658    2.07603656936120   -0.78999935372259
O          -2.12466718557126    1.73372045282991   -0.23596789595681
O           0.22509220375757    1.86911052868381    0.22352587245936
O          -0.52632120779868    1.42392503073233   -2.03441579854254
O          -0.85545227286995    3.63448567146403   -1.06094307401898
H          -1.09256254615594    3.96935110051970   -0.20259538874947
O           1.74819877023581   -1.54177320643870    1.09080807281009
H           2.55137573146944   -2.02793768401169    1.27882104095407
O          -0.35288564615270   -2.36963175323718   -0.32539068708623
H           0.44685004044564   -2.12514082127553    0.20081214183801
H          -0.31463393392766   -3.31670882642313   -0.46437008982941
O           0.81783558160543   -0.84934703917938   -2.48593426992237
H           0.31150583908238   -0.01889352359037   -2.54762334538802
H           0.28338789489375   -1.43035341209760   -1.92932504599123
O           2.27515998481728    0.32533617075316   -0.56581139135990
H           1.61947160503530    1.01212086177991   -0.33305951552412
H           2.02028231684301   -0.79341515194314    0.45169644198667
H           1.93657106320936   -0.07492902440680   -1.39794282005385
O           0.14770645347000    0.29173918396527    2.36970075833494
H           0.26951296579032    1.01572280797601    1.71895923273747
H          -1.14214378660556   -0.25202824092812    1.69532356108147
H           0.82518030483923   -0.36737849396080    2.13736406295181
N          -1.90474299666994   -0.51277372233284    0.98288972916203
H          -2.76127485356416   -0.81641010979968    1.43258296635217
H          -1.52210901553718   -1.24981184537155    0.36873655571072
H          -2.07074708857123    0.39498447709090    0.42215822974561
