    26
        -50.46824851  Gyration_radius:  2.38802994106 Dipole_moment: 4.309
 S          -0.61076075611476   -0.64013781934288    0.94280684050121
O          -0.20182677339137   -0.19435643384436    2.24955636696452
O          -1.83708313753001   -1.42585908834066    0.91339991362270
O          -0.94701196315590    0.63006470607312    0.07566064901963
O           0.46035026452767   -1.33316969968312    0.21159454363242
O           1.18154814431950    0.01278343769559   -2.00902274746909
H           1.51314150199608    0.85894360703346   -1.69303283183002
H           1.04305174462819   -0.52793141657325   -1.20638020041590
O           0.13425360265350    2.43170316498561    2.62771683716169
H          -0.67912228891627    2.80477907236314    2.96904408456786
H          -0.00059576709284    1.46187573514121    2.60511045002098
O           2.48608678667561   -0.05280208247152    1.38637435218885
H           1.86917488564347   -0.69376032140366    0.98557603857645
H           2.19187132477770    0.03416225242427    2.29760695743569
O          -1.38767179343210    0.06534591890074   -2.62825891217894
H          -1.50918424997372   -1.37325422983816   -2.05503633566719
H          -1.65061054929226    0.59452846361120   -1.86376477284703
H          -0.40052068932713    0.12880081942641   -2.63391014392982
O           1.22951654126475    1.97011730221660    0.21186281803282
H           1.86204774074292    1.30665859536349    0.58439531953186
H          -0.11234401900682    1.20766914114019    0.08140304623886
H           0.96564991701917    2.49765699445290    0.98716357286605
N          -1.43709402873133   -2.26212719052516   -1.44824786562546
H          -0.44562936472987   -2.47567844659669   -1.31488309414206
H          -1.95283517271668   -3.04765851967047   -1.83145029116373
H          -1.76440191083753   -1.97835396253851   -0.44528458509387
