    26
        -50.46173143  Gyration_radius:  2.49826700175 Dipole_moment: 7.264
 S          -1.38109330590059   -0.20582177132250   -1.90821756960260
O          -2.33762527471819   -0.95932141014362   -1.09070388744101
O          -1.01257187020315    1.03496295699258   -1.22466727695681
O          -0.25066996338618   -0.98112768844591   -2.32741080278048
O          -2.17765045087561    0.22670753656088   -3.20543155899056
H          -2.92077926478248    0.68469182891534   -2.82736587925468
O           1.58332710856865    1.26092286094922    1.58891516549001
H           2.32588592964613    1.74811522174725    1.94673082024045
O           1.25585678284833   -1.38392753787940    1.53441344707093
H           1.42666626871326   -0.41275701827422    1.59702252289545
H           1.88431687741542   -1.81407492239382    2.11554956914122
O           2.17082672811540   -1.19144530384244   -1.19978593167310
H           1.88323877261057   -1.48260917387485   -0.32482705196922
H           1.37855608507777   -1.25685003680195   -1.76348379403155
O           1.63046575311161    1.42391417967808   -0.95639547982891
H           0.68404765530697    1.36477397277093   -1.19433820281169
H           1.63277481053871    1.38403140467472    0.57646025118843
H           2.00321455277751    0.54259976185448   -1.18373085410468
O          -1.13760457337631    1.58989458236862    1.37860169880513
H          -1.17242803860193    1.58997331775864    0.39820348594025
H          -1.40690505637364    0.06495797200819    1.50240748519961
H          -0.19206314813884    1.67534482904977    1.59343735024055
N          -1.45876589360896   -0.99384854156094    1.31911847908205
H          -1.83587495874344   -1.07413302233893    0.31048928631449
H          -2.07683595978253   -1.46530199985706    1.97008925995586
H          -0.49830956622551   -1.36967200859353    1.37491945790311
