    26
        -50.46173141  Gyration_radius:  2.49825271979 Dipole_moment: 7.265
 S           2.01303339522309   -0.25420902281348   -1.21420938481369
O           1.67945939903186    0.96711729170694   -1.95457636846017
O           1.88249667867735   -0.01466683543914    0.22395488881961
O           1.29647305737669   -1.41087162253505   -1.66512366705245
O           3.55258718141473   -0.50625318156792   -1.47994861501231
H           3.93125803053102    0.31976298243372   -1.19822165210317
O          -1.44580481176480   -0.05908165505324    2.12809295049094
H          -1.90578966498448   -0.34984276029884    2.91593654888909
O          -0.97454700428732   -2.47079033426207   -0.71778488402105
H          -1.53250459584121   -1.68746859853930   -0.80788923003908
H          -0.15813345062788   -2.25993543652484   -1.20647197345721
O          -2.39022269370309    0.02317826539027   -0.36322860632746
H          -2.10204378109415   -0.01623970995298    0.58103527739674
H          -3.34294885512147   -0.07680638596130   -0.36689187344217
O           0.42832290537273    1.84012579146123    1.46699919881754
H          -0.17547102356573    2.05126219904463    0.05121878943349
H          -0.23096961339511    1.28421021135445    1.91840755295529
H           1.11638317182454    1.21229718780493    1.15908486783319
O           0.33309689175464   -1.78341022794599    1.52000809948397
H          -0.73024217058669   -0.76503388926932    1.94843506805350
H          -0.11982450071174   -2.25380090448672    0.78449281232963
H           1.02017504119034   -1.24075510605891    1.08502725723937
N          -0.48984270408647    1.91762416999592   -0.96888056318753
H           0.38145428887095    1.52221437982381   -1.46931841734073
H          -0.78270510504738    2.78901464590982   -1.39660049125082
H          -1.25369004649558    1.22235856577385   -0.97354762519452
