    26
        -50.46173140  Gyration_radius:  2.49812711596 Dipole_moment: 7.266
 S          -0.23897633240513    2.31724411464837    0.40201193626531
O          -0.99442293275234    1.51526056603309   -0.56171690922851
O          -0.67688193912564    2.00050305576778    1.76539757026596
O           1.18065887185029    2.23261652962085    0.22255698943517
O          -0.66787832289142    3.82036379156538    0.15519602764703
H          -1.59969075882623    3.78445057395607    0.34294342177733
O          -0.19937147810630   -2.13722795338463   -1.41688897217829
H          -0.10512174082449   -2.78676411137726   -2.11406597484984
O           2.65876060645249    0.19141556437670   -0.68741212679972
H           2.37408934771780   -0.47273980997484   -0.04648230271465
H           2.32260225953840    1.03882924562357   -0.34308217924405
O           1.29143634851745   -1.89048274142087    0.77893923756204
H           0.76646272581064   -2.04116342217136   -0.04444338946410
H           1.82233550788111   -2.67581983885009    0.91715961932019
O          -2.24846458113868   -0.80162875365682   -0.16279735721892
H          -1.70900611028059   -1.39862580947596   -0.71064358629522
H          -1.49312938423272   -0.76498651405821    1.19410433150841
H          -1.96816213284007    0.10096303440107   -0.42580271696954
O           0.51959246618609    0.14377278306790   -2.30445260700421
H           1.41857204309174    0.21120562052324   -1.91125674632635
H           0.07055549013855   -1.24415067865734   -1.83196532135605
H          -0.02939525988646    0.76177447563465   -1.78249152019703
N          -0.79044731701843   -0.55339242813707    1.98077451367901
H          -0.68835220433641    0.52143320735764    1.96853446183343
H           0.10556665203604   -1.00246095907329    1.73064790931891
H          -1.12133181455264   -0.87038956234858    2.88523570123221
