    26
        -50.47150110  Gyration_radius:  2.42619561391 Dipole_moment: 3.425
 S          -1.01313437592888    1.42531650938022   -0.69474502414008
O          -2.07707296005540    1.67937858908012    0.26410483072513
O           0.29521586950227    1.71291369869437   -0.12578745093652
O          -1.08788700956600    0.10142241056327   -1.27946742987285
O          -1.22259822896702    2.43849764087385   -1.88782468814457
H          -1.20925716387207    3.28021106135780   -1.44480810251793
O           1.74470908908928   -1.59273601834494    0.82451020996138
H           2.49798881747565   -2.17348917074249    0.93496081433152
O          -0.92766987925789   -1.99270291649079    0.38648632513059
H           0.03644873461377   -2.02922494122116    0.53300873469676
H          -1.04806686638584   -1.36659668856380   -0.35407740319827
O           0.62707741101533   -0.57087283894755   -3.20428536205487
H           0.35374531416402   -1.43314519714578   -3.52137699384145
H          -0.08058800733759   -0.26405683568972   -2.60294376299811
O           2.21403422249793    0.08901866530274   -1.09035362923594
H           1.96844931399136   -0.98815767517716    0.05420705009833
H           1.85241266341869   -0.19181473921365   -1.95067837115490
H           1.61458546798486    0.79749342259693   -0.78870987662929
O           0.93852098914367    0.61294404795864    2.25327906562090
H           0.84142852208216    1.18704146430769    1.46864394393174
H          -0.58076442679587    0.19070125504581    2.37848622888092
H           1.37166820053605   -0.19219036209090    1.91322766788730
N          -1.56515256408257   -0.11281759906628    2.09504362042192
H          -1.44416793318456   -1.00196173559549    1.51841981457957
H          -1.91581842172325    0.63349758864739    1.43291386685265
H          -2.18410676839271   -0.23866964552996    2.88776593159341
