    26
        -50.46272418  Gyration_radius:  2.48108331217 Dipole_moment: 6.120
 S          -0.33234566695585    1.31692686671265   -1.90358738189127
O           0.98943086602985    1.74821139712819   -2.27997037656769
O          -0.63752585819457   -0.06913660715587   -2.15982865522920
O          -0.67170125203889    1.66352176569675   -0.50942428591728
O          -1.33078644768271    2.18482098537562   -2.79352825581577
H          -0.75031265747297    2.87822554507956   -3.08958364282010
O           1.24633934914608   -1.95725098442527    0.46322599624026
H           1.98405609846387   -2.56869519014666    0.46814124848704
O           1.15462854587550    1.71705859200422    1.50393106961840
H           0.49261183468941    1.90751789624969    0.81635254433819
H           0.78136196363555    1.00656404024143    2.04194401249819
O           0.11512644718128   -0.74814916987275    2.56785390903771
H           0.57570927185712   -1.23697087748466    1.84574001665671
H           0.39965668106831   -1.13753866930591    3.39515600995192
O          -1.18979383119501   -2.21968614146688   -0.76369497733702
H          -1.03508206646313   -1.59009592009197   -1.49876322973234
H          -0.30329915445031   -2.35876376353551   -0.38392395490727
H          -1.73061175355067   -1.11692396491151    0.16026376185468
O           2.22627284232841    0.22554915241147   -0.47994541865821
H           1.86823402928843    0.70731942896365   -1.24897238357912
H           2.09520165750192    0.83656203158961    0.27480154229222
H           1.59516949291555   -1.12547968003765    0.01136639681809
N          -1.88368608632942   -0.23371847438443    0.76483330933488
H          -1.44477574029418    0.57852935184768    0.21406418583744
H          -1.34892115911578   -0.35162402647971    1.63814134506863
H          -2.86495740623002   -0.05677358399621    0.94540720441539
