    26
        -50.46173138  Gyration_radius:  2.49822906947 Dipole_moment: 7.261
 S          -0.56970105491616    1.84177236726067   -1.36887320701020
O          -1.24848229229378    1.42027220318499   -0.14240682542361
O           0.72646094391769    2.44345366513959   -1.03882002038238
O          -0.48532415969562    0.80631162909472   -2.35642943912007
O          -1.44262689089681    3.01526916883274   -1.97329279077053
H          -1.40057464600555    3.66119748101276   -1.27616974340107
O          -0.48914739338312   -1.83579546767499    1.73560013083217
H          -0.85683073238424   -2.59610950047336    2.18676649994064
O           1.63534418696480   -1.77636850958323    0.12680675070584
H           2.14248801294136   -2.58515099839695    0.20697701270434
H           0.86668555965887   -1.85856335753993    0.74217373376664
O          -0.29807285242349   -1.84508510306619   -2.01942421030111
H           0.49898878583187   -1.85182910366171   -1.47385389972799
H          -0.36468660664623   -0.93523945900500   -2.36219150930602
O          -2.07215918972641   -1.13522236077845   -0.13808856070110
H          -1.17221529023979   -1.58046414215985    1.02083148823763
H          -1.92043927384547   -0.17140246253859   -0.19992222571224
H          -1.60516957647338   -1.51445526369721   -0.91619631457439
O          -0.17492680156316    0.85009183816091    2.22899779396287
H          -0.72211571998377    1.16415027141175    1.47780432784786
H          -0.36018207238987   -0.10358297187659    2.28952157069546
H           1.15869982594464    0.91652036784199    1.43477748387740
N           1.89746223289370    0.91114966682867    0.65284180865315
H           1.97924467330300   -0.05785456549536    0.30475879774010
H           2.79311136039993    1.26526489051138    0.96975253444283
H           1.48416897114797    1.55166972662436   -0.11194119694666
