    26
        -50.46272368  Gyration_radius:  2.48186297947 Dipole_moment: 6.088
 S          -0.17439173842199    2.22357733823232   -0.70563147924739
O          -0.10053328977725    2.13791651773258    0.73228094769271
O           1.07209685297091    2.47519624972731   -1.38253060132039
O          -0.89481680786915    1.05544109541988   -1.24845242399659
O          -1.10249167173595    3.47268843257524   -1.05154185951274
H          -0.61856540995568    3.85771631948649   -1.77454557570080
O           1.51361301329572   -1.18745904320745    1.37434841308006
H           2.34697465279844   -1.48455051173082    1.74223199167521
O          -0.31790310610711   -2.65676759046869    0.08671100944878
H          -0.14944045676971   -3.59471009520246    0.18107801477094
H           0.39522966151565   -2.18500633298401    0.57805543907803
O           0.35353527303242   -1.13628495694976   -2.26360023747916
H          -0.15566129941254   -0.32288061650747   -2.10118251715333
H           0.03632580601683   -1.78104299641201   -1.61761172381941
O           2.17162913276765    0.14228107217257   -0.72525569125780
H           1.90109507666467    1.06365625986049   -0.89859208308229
H           1.76386140210552   -0.58996639266545    0.60049924409013
H           1.73113977797500   -0.37857102476994   -1.42877025126400
O          -0.44763509036440    0.30298551128383    2.57409639688471
H          -0.27696741897948    1.14916729704153    2.10967486925911
H          -1.42398337414388   -0.17713948070143    1.48926872116982
H           0.33544887514979   -0.23950216353926    2.36896851288869
N          -1.90929942746181   -0.47864236885923    0.57116009285894
H          -1.57925339464288   -1.42614847692050    0.33515410614375
H          -1.55047163927629    0.19601519579217   -0.18477957226170
H          -2.91953537937478   -0.43796923840913    0.63896626705505
