    26
        -50.46272415  Gyration_radius:  2.48168567403 Dipole_moment: 6.104
 S           0.21721349587843    1.97945029320028   -1.22764437153143
O           0.55693852319620    2.18381720840306    0.15903082372038
O           1.32465211379773    1.72630674448521   -2.11338343434591
O          -0.85225162525066    0.96905510615771   -1.34586797033487
O          -0.44117725687035    3.33391873870715   -1.75047677110386
H          -0.04742555179248    3.40082163782256   -2.61413630965028
O           1.43571073452268   -1.23818613976755    1.41348916379708
H           2.23212920374590   -1.66944559209246    1.72628618685147
O          -0.91102879900740   -2.38117793418709    0.81662292753887
H          -0.95512940836537   -3.28476162998927    1.13085293613292
H          -0.02259619170111   -2.03252580914993    1.06508147223817
O          -0.38515129935845   -1.64769357146692   -1.91753093077405
H          -0.64538133550763   -0.70992855171396   -1.90326211353368
H          -0.70915176489053   -2.02541522687575   -1.08933247886208
O           1.95262735894467   -0.62148034547762   -1.02847914923886
H           1.87744054810557    0.27901158732386   -1.39670583023259
H           1.65859074970252   -0.91206617459805    0.48491564942543
H           1.27084501447144   -1.13884079536292   -1.50559831806981
O           0.16316984279797    0.95863675081099    2.44447051933095
H           0.43237860268774    1.60412209097103    1.75772100305973
H          -1.09598527170629    0.54835056888554    1.66469222830101
H           0.73850245988770    0.18919920296560    2.28170655684389
N          -1.81236401067729    0.20398283629022    0.93165983973728
H          -1.46397642262117    0.57434578149204   -0.01525663693214
H          -2.75002483647573    0.53614041773226    1.12474754067562
H          -1.76855485351570   -0.82563720456396    0.90639746695988
