    26
        -50.47150113  Gyration_radius:  2.42630197519 Dipole_moment: 3.425
 S           1.46834708948897   -1.14848886279961   -0.25519529633108
O           1.48540827880440    0.15842290842681   -0.89555907960010
O           2.21872034641262   -1.13958194413030    0.99090954294817
O           0.12737610072012   -1.67561706890489   -0.10020141832390
O           2.21457244780267   -2.14196051725078   -1.22993793473252
H           3.09237878589862   -1.77662695675962   -1.26014945944245
O          -1.80574829555235    1.72933728617648   -0.10383792831304
H          -2.54004972010716    2.29578876650598   -0.34222426702940
O          -1.40971244916821   -1.98021396522470   -2.25493495807751
H          -0.79008282450855   -1.99675551003746   -1.49842625483832
H          -2.20424163998042   -2.42802572997524   -1.96004665623342
O          -1.50900857579516   -0.39642673485146    1.59461656298741
H          -1.78707330925792    0.35619306947180    1.03906530029514
H          -1.05187155875766   -1.00729598971783    0.98402913704577
O          -0.78935198679165    0.67288187215888   -2.24071539690069
H          -1.47397821146203    1.32568245359899   -0.96165790334564
H           0.10903189913278    0.51864207756326   -1.89226067647282
H          -1.13517279674605   -0.21688576919795   -2.43680164310339
O           0.79463818220485    2.32166483234330    0.56289544383526
H           0.86247993494479    1.38507616074307    1.83586974496676
H           1.18678829443139    1.69192829788066   -0.07294569037639
H          -0.15468285813681    2.33357796669619    0.33902120547942
N           0.79913091828754    0.50657807436007    2.44060264485525
H          -0.19070914949561    0.13075941485790    2.31065195041216
H           1.03110922264368    0.67745315996009    3.41236403285927
H           1.45170185497885   -0.19610728188949    1.99486901743563
