    26
        -50.46272425  Gyration_radius:  2.48181324758 Dipole_moment: 6.103
 S           2.11990915526521    0.49169960881115   -0.85912788038171
O           1.11434366276700    1.35452706598578   -1.42848192111365
O           2.83802054791241    1.02573735429632    0.26964190332725
O           1.55279486293393   -0.84523578725837   -0.59445881094484
O           3.22075735132113    0.25226657306335   -1.98679459935953
H           4.01727374398185    0.28898136577843   -1.46765458541638
O          -1.69109511934026    1.26731426072629    1.06146927061914
H          -2.09928048623303    1.89807875990643    1.65612527420598
O           0.66135060382082   -1.63576311783464    1.84953632103515
H          -0.26897402348781   -1.75775720432162    1.61868490425511
H           1.12964990217830   -1.49913800183207    1.00732141751348
O          -2.07090597168576   -1.38219003422139    0.98087515280469
H          -2.82381878026565   -1.64846375942413    1.50933293269664
H          -1.99182299298036   -0.40274509861025    1.06455794864641
O          -1.49774052557964    1.37683981097758   -1.66931335337926
H          -1.71521501552310    1.52014759833442   -0.73026540919140
H          -0.54619942782464    1.60406556597245   -1.72889221267839
H          -1.20955869947243   -0.13264821897970   -1.67158223114593
O           0.73207454767863    1.06610173718610    1.89612786269325
H          -0.71683263535163    1.24772473384449    1.32418140799607
H           0.77425572122875    0.11749509976991    2.13809950029320
H           1.51842533166769    1.20979508403903    1.33643333708340
N          -0.86478160144052   -1.13707880491887   -1.46804401416018
H           0.16326541558437   -1.03932081718267   -1.16948965339083
H          -0.94852195798689   -1.74313696234926   -2.27582118796439
H          -1.39737361917617   -1.49729681174913   -0.66246137405778
