    26
        -50.46824852  Gyration_radius:  2.38795609987 Dipole_moment: 4.308
 S          -0.08662806994467   -1.02023993063408   -0.78992356105356
O          -1.28693510190907   -1.78124511244941   -0.55842332056914
O          -0.35179243485631    0.31502117348192   -1.34561605180131
O           0.60251241962419   -0.75853911736517    0.60125330379874
O           0.93650930646577   -1.70215395101940   -1.57110746264285
O           0.40980372637363    2.26746505662401    0.34798990839226
H           0.04776801659760    1.64862535089094   -0.31674658923559
H          -0.12978077743098    2.14177792378315    1.13465367284395
O          -2.77090288263457    0.60520601808888   -0.25571989518506
H          -3.14673822629078   -0.27751422886742   -0.31954765238930
H          -1.98140354836159    0.58164487854557   -0.82854345602663
O          -2.04670920795770   -2.17646030210876    1.97545272267046
H          -1.69517683766785   -3.01340186190884    2.28071300620162
H          -1.83329047359597   -2.12460924061092    1.02103178304222
O          -1.26195878248134    0.39907093244626    1.91952611718475
H          -0.08835253235520   -0.28828409290783    1.17694916387575
H          -1.91505890213967    0.62046727845505    1.20990573130916
H          -1.61774360556995   -0.41759677105604    2.31354448247192
O           2.74497529832122    1.03605449467186    0.47870188349375
H           2.39545943488481    0.22719457924147    0.87515144407326
H           2.60870131760269    0.71396144368220   -1.03473510965814
H           1.99696479216962    1.67937832094556    0.55068611989322
N           2.24966498010396    0.42380761546465   -2.00962735120057
H           1.43640720018499    1.00257448118230   -2.23336175360082
H           1.81779861300905   -0.57325207673799   -1.89518261210345
H           2.96590626787121    0.47104715816054   -2.72702452379551
