    26
        -50.47150113  Gyration_radius:  2.42633546964 Dipole_moment: 3.424
 S          -0.78570501049043    1.65912294796493   -0.41462925099778
O          -1.66914220387076    1.98392208396160    0.69444267156730
O           0.60745258456371    1.63212900663888    0.00569582099220
O          -1.18057595369588    0.45232635097898   -1.11315365274851
O          -0.92095117453036    2.83138779095200   -1.46407809674300
H          -0.69517094706925    3.59608323630916   -0.94528830560075
O           1.47957404249664   -1.97134298076375    0.43176212268526
H           2.11173761153294   -2.68907438999074    0.38547124109661
O          -1.25044098284437   -1.82153737512418    0.30521737496290
H          -1.32631280417018   -1.09918894954870   -0.34852747325581
H          -0.30180518611527   -2.05010523178687    0.32146469238201
O           0.15237420560753   -0.28433396585412   -3.29917141750145
H          -0.41253401810614    0.07125370821801   -2.58435374598565
H          -0.31763621057328   -1.03642463987028   -3.66279503120972
O           2.05712853440131   -0.18428825952561   -1.35370202310398
H           1.64328856752491    0.57944837535693   -0.90902827461278
H           1.73223050993338   -1.32894617627361   -0.29792100957453
H           1.55671161515714   -0.28892711140831   -2.18337126373740
O           1.27939211538343    0.15522503592288    2.16254084455588
H           1.21132101984026    0.82773639034630    1.45705384659301
H          -0.27064809111608    0.00400202942801    2.44136757734388
H           1.50782551157274   -0.66818295459007    1.69218581721178
N          -1.31999561794024   -0.07906702435083    2.25903772585962
H          -1.86216698366018   -0.18564466505364    3.10875541031428
H          -1.43774254927405   -0.89870961708335    1.58656993263166
H          -1.58820860451181    0.79313640514004    1.72445447687722
