    26
        -50.46116257  Gyration_radius:  2.446456558 Dipole_moment: 5.283
 S           0.75070429152575    1.87540719300423   -0.64285383638404
O           0.80034708230737    2.52267901695147    0.66899456984320
O           1.60168763656343    0.69227982032160   -0.66311123077464
O          -0.59325333658729    1.60396300569426   -1.08198331889069
O           1.37640826527944    2.90328523176581   -1.66498303499872
H           2.24396112040179    3.05724978323299   -1.30436736025443
O          -0.17172674723731   -2.41639654406395    0.52513669902845
H          -0.74034682369944   -3.18571514176768    0.47785938802372
O          -2.35133372156222   -0.89627162359664   -2.04570937779942
H          -2.44180929849990   -0.00175982614043   -2.38224745576804
H          -1.40123412402380   -1.10994784983932   -2.17739977119828
O           0.33689260965314   -1.30761459319783   -2.02235472143812
H           0.38048569199414   -1.93055232606328   -1.28340390773149
H           0.78873608066626   -0.50893887128692   -1.70125917713305
O           1.88097511229160   -0.88709526257636    1.46026794257361
H           1.97978493913948   -0.33881916565094    0.65133595053237
H           0.81452352303590   -0.01021148026927    2.14037029823004
H           1.37887412966166   -1.66673000397117    1.17247194635382
O          -1.71732194891188   -0.21808517563299    0.43099404703700
H          -2.28176612100405   -0.60687589752657   -0.27261425831653
H          -0.76350451572011   -1.62677672800925    0.50746694804372
H          -1.28604292620039    0.50847985355425   -0.07849520968090
N           0.02565726996138    0.70727290458419    2.32321076020095
H           0.31147475657940    1.55673758169620    1.72857889948359
H          -0.07165132745126    0.94819691770183    3.30332322130808
H          -0.85052163818037    0.33623922111519    1.93077201975547
