    26
        -50.46116247  Gyration_radius:  2.44651392224 Dipole_moment: 5.290
 S          -1.36963956452321    1.28717855220119   -0.98014246908305
O          -1.77229964410082   -0.05598140763074   -0.58247539946181
O          -1.56860481276108    2.23115014148552    0.12066891547776
O          -0.03653589207094    1.33291403651051   -1.52185352930418
O          -2.35537357824431    1.73678069045499   -2.12857342536585
H          -3.20399665355451    1.71690713394659   -1.69752276729870
O           1.00078120206169   -1.99182246149455    1.08510884817694
H           1.79210792824846   -2.52706601791986    1.15401913718266
O           0.02126905595289   -1.86491217588294   -1.56124251006689
H          -0.65634016187628   -1.18909882169147   -1.39014323138060
H           0.22713747249134   -2.23463036563519   -0.69124547712074
O           2.40906194986855   -0.66543946493109   -2.06708170544654
H           2.17569697753643    0.07911639879054   -2.62622522183076
H           1.58113013385531   -1.19109593393737   -2.00522066427377
O          -1.39600774313384   -0.97331594132056    1.88708536582738
H          -0.65405054616419    0.34561995162045    2.16715616459912
H          -1.71461844199760   -0.73590828131183    0.98888107413935
H          -0.67602277929285   -1.60707671602984    1.73614854301597
O           1.70989127769052    0.45474659774846    0.22473442009521
H           1.03399749699261    0.83625195022914   -0.38449098250642
H           1.29065103546965   -1.09698183987855    0.78615011587824
H           2.33598264504508    0.07740493712296   -0.43135908585831
N          -0.14452563168261    1.29292265293114    2.05050151348464
H          -0.08452295742709    1.81969990046058    2.91481904816140
H          -0.72947370121141    1.80664068375240    1.30837856905118
H           0.78430495282253    1.11599580038412    1.64392476389320
