    26
        -50.46272427  Gyration_radius:  2.48179534269 Dipole_moment: 6.106
 S          -1.07362070345390   -1.93896380913043    0.74931083752814
O          -1.37989780387905   -1.65833051411668    2.12866019810311
O          -1.87619457374176   -1.24254989994786   -0.22581810274275
O           0.36013731893299   -1.77669887792085    0.43794988743536
O          -1.35857893474646   -3.49596919368050    0.56074103515236
H          -1.38825562062609   -3.78187563321639    1.46781768132933
O          -0.60082309547833    2.28413462130932   -0.12118371246832
H          -0.95567484300749    3.13333096698011    0.14530095099748
O           1.94008558841134    1.69453162264987   -0.72668484367807
H           1.02684997102257    1.98983282363398   -0.50007231151473
H           2.47069345115483    2.48423719515513   -0.83579436862550
O           1.95438639598879    0.06454249862839    1.64619562026428
H           1.50532606258091   -0.73359775773658    1.31654668536401
H           2.16492654161066    0.59215034572028    0.86457074285189
O          -1.51458858007846    0.58791571982713   -2.06947654791929
H          -1.34519403823219    1.34146670618243   -1.47530823429489
H          -0.14137206020283   -0.10182174636982   -2.06028364225789
H          -1.90951811829970   -0.09107400826157   -1.48318480017031
O          -0.59271817226285    0.88219820869993    2.03375190090860
H          -1.02292834982088    0.01095429957375    2.12353464945209
H           0.36346868229472    0.69460344645431    2.13740282838935
H          -0.67610277533924    1.69733122795077    0.69647896580304
N           0.80430380388411   -0.55687442458785   -1.79993572964141
H           1.16086237063446   -1.15185104761415   -2.53865933320125
H           0.61964549206324   -1.12634195097324   -0.90717138884333
H           1.46478202060072    0.19871919079588   -1.56468895822257
