    26
        -50.46254235  Gyration_radius:  2.49151658807 Dipole_moment: 7.181
 S           0.46550788319877   -2.32746598848667    0.08704039542893
O           1.48099792166410   -2.06323001308502    1.11020421593070
O          -0.75820513446382   -1.58755488344577    0.39962936427973
O           0.93530904287962   -2.11649303171664   -1.25195166236993
O           0.10134389509715   -3.86087123398033    0.22929133033021
H          -0.14590659974135   -3.91780758047625    1.14626676214729
O           1.15560345864188    1.83347542591185   -0.82724489833470
H           1.79686013453297    2.37725484054153   -1.28595001870924
O          -2.08506152222060   -0.06639138950888   -1.39461959661664
H          -2.09214974329755    0.75210523099353   -0.87832952030464
H          -1.72076214347324   -0.74571018070118   -0.79682851747466
O          -1.40483328160560    2.30116601244826    0.02094281388426
H          -1.76251211084264    3.11410237990499   -0.33765299891926
H          -0.48330871450073    2.22748473285702   -0.29716187541279
O          -1.11181619199645    0.44531036169402    2.07884407088735
H          -1.15282255706612   -0.38196831672836    1.55226137074786
H          -1.47271891390243    1.13639465215626    1.50397187597920
O           0.32888461342151    0.13028708886613   -2.50677021569533
H           0.84744622847199    1.13493504699052   -1.52119895177926
H           0.65261662109976   -0.73930983384589   -2.19159505582762
H          -0.63988851693894    0.08879292170215   -2.33242625829499
N           1.44022359076293    0.47417710689330    1.50662015455272
H           1.55618759987735   -0.58253025535905    1.33360589800016
H           2.13927797016002    0.81234954352622    2.15844835322727
H           1.48175860166135    0.98772691922286    0.60147300731852
H           0.44796785858008    0.57377044362540    1.89312995702470
