    26
        -50.46837060  Gyration_radius:  2.48001536336 Dipole_moment: 2.830
 S          -0.77859631565707   -2.10967383174772    0.06229823284460
O          -0.92242569545342   -1.52415950321736    1.37531083051193
O          -1.94088777460080   -1.92415611337912   -0.78144826379575
O           0.47138417076351   -1.69406471998235   -0.57598858822738
O          -0.62671762503782   -3.67950657052169    0.25614595720931
H          -1.53157537328050   -3.93766567337744    0.39452384851199
O           1.70417581538247    1.95270873871973   -0.92140650040220
H           2.24364667321103    2.50730688344872   -1.48516684824402
O          -2.14002968844349    0.64870319190100   -0.98960140385028
H          -3.06563427669716    0.86979554801825   -1.10597620926312
H          -2.10502996732613   -0.33457631270538   -0.87614298435546
O          -0.62151307672290    2.21936341776990    0.71656830200592
H          -1.22500860888241    1.68718036342741    0.17047288175354
H           0.17261928706076    2.34745666959300    0.18030776546120
O           0.18924679606203    0.54065924211742    2.62356189125313
H          -0.35554083633223   -0.23729836475952    2.39111286184811
H          -0.20804756338065    1.28170056785372    2.10974876253060
O           0.23853402373183    0.33509049826616   -2.32860968193550
H           1.16185607012071    1.36919083525245   -1.53191332566988
H           0.36270178876789   -0.51285160682502   -1.86038884547634
H          -0.67355697784839    0.59103791209719   -2.11767060614068
N           1.96531406745770   -0.08201331292926    0.86250608843952
H           2.07650847913850    0.74532842379132    0.24541996371567
H           1.42420571212991   -0.81080671212718    0.31755482983974
H           2.86080084638096   -0.44603670260191    1.16604773019170
H           1.32357004945558    0.19728716191804    1.70273329124345
