    26
        -50.46875772  Gyration_radius:  2.4419905919 Dipole_moment: 3.608
 S          -1.89631860330804    0.14263255394568   -0.47078379804645
O          -1.57484303921803   -0.53299862102497    0.77416747108592
O          -2.11807497992017    1.56137855202178   -0.30647998842476
O          -0.90245974166698   -0.15252165494747   -1.50189008885580
O          -3.26323831423276   -0.45403484168829   -0.99335541484784
H          -3.86505029648949    0.22723379738458   -0.71492900493904
O           2.46608650168137   -0.42712142988196    0.14074259343270
H           3.34762410659317   -0.79578948884470    0.20126808728554
O           0.54946201683657    0.62984364418071    1.95689745612705
H           1.29092269009040    0.20970152408317    1.49860399945090
H          -0.25576444235815    0.17797400144856    1.64264726792404
O           0.01417954023350    2.85926553997679    0.61155761623437
H          -0.88990034869361    2.59234950967686    0.34430999602612
H           0.24498325325809    2.23232790411872    1.33523807747459
O          -0.62878385452747   -2.99161241545201    1.15793158061906
H          -0.32798529354276   -2.99586610470856    2.06840914789032
H          -1.10779315479100   -2.14670897859895    1.03785525251144
O           0.85454969137754   -2.13006281870098   -0.92882233817873
H           0.16503801415428   -1.53092791959491   -1.27003964422877
H           1.88183904869032   -1.14840114438531   -0.25494976987932
H           0.40867084384587   -2.64314113425829   -0.22548844949991
N           1.14575048681257    1.47575758980522   -1.24676644012188
H           1.52825449934951    1.92629032750021   -2.07015143957783
H           0.32173680337926    0.86254041950422   -1.49091548668438
H           1.84609505557455    0.86226141823727   -0.77969904095376
H           0.76501950687249    2.18962977020336   -0.51535764182455
