    26
        -50.46132065  Gyration_radius:  2.4287031715 Dipole_moment: 3.755
 S          -0.25159847974610   -1.97664672369770   -0.24443379614521
O          -1.56654266002707   -1.49007670659983    0.13350613876477
O           0.30035495592978   -1.20070358620855   -1.35414199436460
O           0.68229811288313   -2.07981824194137    0.85126484493534
O          -0.46663349619145   -3.44342024081066   -0.79368322290627
H          -1.20864998340992   -3.33975533626677   -1.38052621015783
O           0.19686378780327    2.28378393274843    0.79922023357168
H           0.40060688532383    3.21515166601848    0.71268170217670
O          -2.98622660275196    0.54399787387240   -0.85724121120460
H          -3.54704716960000    0.84138691078386   -0.13902569434428
H          -2.53543593654542   -0.26027769151862   -0.52821913746941
O           2.57881947385884    0.13231620742090   -1.29749857494311
H           2.32302275003321    0.89929260063776   -1.81642683070987
H           1.84197481645350   -0.50858711234551   -1.41533987436943
O          -0.81551533921206    0.07148834518895    2.26271987367817
H          -0.91959576894353    0.94220871053145    1.86595620696155
H          -1.15331565690450   -0.56979700999385    1.62088050617146
O          -0.48555235137861    1.34396320436257   -1.52554425540073
H          -1.45614868268976    1.27316464174604   -1.46335508481285
H          -0.07273416080530    1.96631076699769   -0.11118840408883
H          -0.19077245637299    0.41077941523726   -1.54821292117293
N           1.88472868308211    0.20250978146682    1.26622032412096
H           1.20134890710216    0.98896376137546    1.32471294506567
H           1.34661705557652   -0.71547696733694    1.25939807190644
H           2.36775885857138    0.25068701916416    0.33087861966720
H           2.53137446795911    0.21855479916803    2.04739774506730
