    26
        -50.46132074  Gyration_radius:  2.42866622602 Dipole_moment: 3.755
 S           1.33736596313383   -1.21372280987477   -0.87770344689030
O           0.41957487346447   -1.78311130779945    0.10797360816439
O           0.61341137129455   -0.61499969806538   -1.98501447598916
O           2.30884622562411   -0.34207385816479   -0.26147315264806
O           2.14390185407960   -2.42986325297229   -1.48605374806246
H           1.49002888525817   -2.86559016251133   -2.02300625868383
O          -1.33731847401334    1.84724190534835    0.83243495012624
H          -2.02917404893638    2.24329236739083    1.36243364429390
O          -2.01798564592578   -0.39879635195506   -2.39020852601111
H          -2.13227190183076    0.38229453699603   -2.93392775746603
H          -1.05128582127716   -0.53596971623518   -2.31995184911284
O           0.69372832458642    1.99748590709977   -1.14580860892218
H           0.75937849891007    1.12516152435458   -1.56063632019440
H          -0.22017688436980    2.10181579000457   -0.86244329671202
O           0.30225775671755   -1.09868757009795    2.65542819206838
H          -0.64826394310006   -1.14845825730889    2.78579870883958
H           0.45794038162865   -1.51271103576930    1.77685766206707
O          -1.97264323245309   -0.61779195404702    0.30985172095133
H          -1.13329006012048   -1.11885596025303    0.25760738406261
H          -1.62683746769663    0.90764786341225    0.64344185680669
H          -2.27209576706357   -0.58059777954696   -0.61745002817613
N           1.18947694444536    1.15534845747528    1.56411880979436
H           1.80408063433462    1.82291303519010    2.01716053321083
H           0.89905518142889    0.36596075667087    2.19899793578211
H           0.32821594025820    1.61990832273584    1.20166947397924
H           1.69408039162282    0.69215926792203    0.74990299872297
