    26
        -50.46837083  Gyration_radius:  2.4803731122 Dipole_moment: 2.829
 S          -0.14069224618519   -2.24508126228922   -0.05103560876006
O           0.01422926049598   -1.76204906096187   -1.40377445829195
O           1.11750347104493   -2.53955885243789    0.60308756593754
O          -1.00917960300266   -1.36718725239335    0.73495280337976
O          -0.92538814491663   -3.62471376998063   -0.12492726160075
H          -0.22547001197679   -4.22305880031489   -0.36263474917278
O          -0.62816535073054    2.46795343466518    1.03923743435525
H          -0.81194720904667    3.18894689982208    1.64157780900302
O           2.34842201994283   -0.26231795804260    0.63527933049759
H           3.29195584449087   -0.43048701779965    0.61051478068530
H           1.91012924931310   -1.14902801825368    0.58319660312086
O           1.32999939299340    1.78788056142856   -0.92787985160201
H           1.75130762976478    1.05793416903488   -0.44284741468917
H           0.74500073864494    2.22155883315080   -0.29206162354326
O          -0.36333679730957    0.58108436287051   -2.59799593530152
H           0.36939987017974    1.09852386253669   -2.19016515399409
H          -0.14306581390010   -0.35108405032339   -2.40185994129335
O           0.27519089957058    0.39339261561184    2.31369775491487
H           1.16967522566016    0.26444387125101    1.95966832565752
H          -0.27385483334153    1.71372164170569    1.59868886920663
H          -0.24491713882922   -0.33240518392797    1.91817747576102
N          -1.94487126830666    0.71386313675881   -0.56697512986168
H          -1.65947937126834   -0.17268289877326   -0.06360006191688
H          -1.38342604949909    0.71637210979965   -1.50536071567187
H          -2.94650979572197    0.73978652320268   -0.71729098586525
H          -1.62250995806569    1.51419215366099    0.01033014904517
