    26
        -50.46824854  Gyration_radius:  2.38795875913 Dipole_moment: 4.308
 S           0.61485888737705   -0.42825460413645    1.05393247214162
O           0.84113673227065   -1.13096927849690   -0.21773240891902
O           0.18751103999811   -1.36569827840287    2.08379685795362
O           1.71045983451056    0.42935284120054    1.42492639899649
O          -0.65096746980702    0.47458859133292    0.80662377125661
O          -0.93877513898886   -0.38441480197471   -2.09813352168849
H          -0.78677062869417    0.55681494710570   -2.22769386845380
H          -0.21244983929344   -0.68722499798829   -1.51791458235837
O           1.33879993126781    3.07300832995768    1.26264482130559
H           1.56107259402725    2.12863903950874    1.39666809219819
H           1.05220253080107    3.40168390541247    2.11529025677616
O           2.43240133207113    0.72296753455550   -1.29198625815169
H           1.99501429625694   -0.09165352389349   -0.98037869156506
H           2.95694739085798    1.02143500414243   -0.54347490384411
O          -2.81618385421996   -0.90004660968829   -0.31043429074927
H          -2.53130616940529   -0.22016464971999    0.31422038819396
H          -2.31159364436455   -0.69220244846906   -1.13552143895200
H          -1.97095815279494   -2.11538949167232    0.16003360761298
O           0.19025590678153    2.10975187903977   -0.97431384623893
H          -0.38541962123033    1.14839945112347    0.09563595408384
H           0.48327720454921    2.79144732091435   -0.34318580598736
H           1.03404074316981    1.68478489320652   -1.26841953560840
N          -1.17276248937183   -2.77196265415769    0.46874848498955
H          -0.65641971002967   -2.26598937789785    1.28795763184614
H          -0.46873000054130   -2.78608013389208   -0.27325029292641
H          -1.49564168519473   -3.70282291711323    0.71196070808583
