    26
        -50.46208008  Gyration_radius:  2.44287247733 Dipole_moment: 6.114
 S           0.16649547385601   -2.00424049312285    0.57548144329976
O           1.39747866169549   -2.29028536113933   -0.13701262348816
O           0.38940163369203   -0.95938916341762    1.58563419479023
O          -0.94716650464129   -1.68486120598931   -0.27929509403087
O          -0.20095333031229   -3.32146298966255    1.36507290022708
H           0.65858963733223   -3.70257266541973    1.50938057012478
O           0.00005168892198    2.50129877217576   -0.03726041402669
H          -0.19950169341539    3.34077609186821   -0.45226195472035
O          -3.15237276449122    0.32331742971840   -0.70694140995265
H          -2.81750008346567    0.56523349806754    0.17998342558299
H          -3.05571929662927   -0.63288335624655   -0.73870905397675
O          -1.70207002515576    0.83595746725308    1.56578187161412
H          -1.18074820706460    1.58644083058665    1.25371246789556
H          -1.07742658642692    0.09736571836140    1.65133483123360
O           2.05969582461959   -0.30752288178700   -1.72995673285458
H           1.22226270885167   -0.02947477895764   -2.12402846824639
H           1.88372274649447   -1.17922027773597   -1.30683213098635
O          -0.67187851150103    0.54533731533015   -1.64482744293622
H          -0.66208889323648   -0.31319222038616   -1.16318533127628
H          -1.63760753031741    0.71364449338944   -1.67008664145593
H          -0.27294096797979    1.79063077202421   -0.68673542159272
N           1.98877456831870    0.84380288686833    0.61514994957598
H           2.17888915106088    0.45228725512587   -0.36513979262217
H           1.38563687876243    1.68381887794759    0.50623681690624
H           1.40548531594223    0.09914871843889    1.11024837627524
H           2.84149009504600    1.04604527669042    1.12425568464432
