    26
        -50.46553205  Gyration_radius:  2.49759081377 Dipole_moment: 4.134
 S           0.59805261082780   -0.34542307993261    0.58666588535335
O           0.94219220448910    0.97904566177388    1.12829352904903
O           0.06605966698171   -1.23430665056396    1.59817694268984
O          -0.52411873322407   -0.08351501197294   -0.47500614176308
O           1.70257689540238   -0.89340619941336   -0.17990363237697
O          -2.39455043151547   -2.30344949803237    1.46933701503385
H          -1.44578292696875   -2.06893780089104    1.48007877665373
H          -2.60075050224998   -2.60654747932657    2.35550256927848
O           1.20364767109745   -1.22974488271686   -2.76067538946093
H           0.52437629197008   -1.89752758285707   -2.86794218965476
H           1.40681027873809   -1.20985695329836   -1.79930700309412
O          -1.09575214273306    0.73551512249970    2.98646417550217
H          -0.64618802502555   -0.08516951070774    2.71238400516872
H          -0.46662040335393    1.42556057851787    2.75423709775267
O           0.37869205128632    1.29398430064825   -2.73086458074631
H           0.67665227242751    0.39292093140038   -3.00028283738758
H          -0.34796501611929    1.11747809763516   -2.11837761101335
H           1.54601903122964    1.61187647770961   -1.74502982422830
O          -2.64065591519477    0.31061102175340    0.84257083854351
H          -2.26533537391810    0.62295030982041    1.69710560399344
H          -1.40927093679613    0.11045643139063    0.01452686303632
H          -2.85864394354104   -0.63147686216332    0.99522784778487
N           2.27292829998116    1.55901900003665   -0.95219370535983
H           2.97007596030651    2.29509004726743   -0.99383712481449
H           2.68098221915997    0.61642366046404   -0.98308774078511
H           1.72656891674386    1.51842989095962   -0.01406335915396
