    26
        -50.46630203  Gyration_radius:  2.51413632521 Dipole_moment: 2.605
 S           0.80725657975058   -0.60141642671979    1.63049744910877
O           1.06970625843759   -0.90673558229380    0.23147394796570
O           1.31575540974112    0.71862724419575    1.97343153799968
O          -0.57869815209989   -0.80069504372127    1.99382315010203
O           1.63968368368878   -1.63643485443392    2.48938829077540
H           2.53528524044217   -1.36022213439684    2.32595227189942
O          -2.03470071499673    0.67900112213641    0.28160449179542
H          -1.75046150839854    0.16432578806532    1.05952920947306
O          -1.64901453400149   -2.93413974560666    0.73640057154457
H          -1.97188916585762   -3.56549370641831    1.38005074870118
H          -1.24922273219267   -2.20519772758681    1.24770129966548
O           1.50131115617006   -0.16802151150191   -2.34116494600992
H           1.60749648331746   -0.44202532183715   -1.41448768023457
H           0.67179936249339   -0.57644925488067   -2.61433739266713
O           1.04616036827917    2.41645397075259   -2.10571805052848
H           0.46438428414857    2.62556077124243   -2.83832877136624
H           1.32973936069405    1.47490482968875   -2.24107746713279
O          -1.07793558164365   -1.20841586165125   -1.33938469119288
H          -0.27657596398991   -1.16871371845478   -0.77765394973526
H          -1.54101076017755   -1.98754653204661   -1.00563115092647
H          -1.86784396166700    0.06467408522380   -0.47142359841576
N           0.00552090279749    2.30688241911166    0.35700506064405
H          -0.17232095633607    3.22106867825281    0.75988162262714
H          -0.90442701834977    1.74238255178561    0.26972769782778
H           0.45264362838370    2.40340200406146   -0.59112978223946
H           0.62735836143952    1.74422395700255    1.00387014030099
