    26
        -50.46373152  Gyration_radius:  2.44904994192 Dipole_moment: 3.702
 S          -1.08540258036046    0.24899108091648    1.63872988772160
O          -0.63657131058067   -0.21441350405051    2.91530995353577
O          -0.16484969745145    1.21244145988256    1.02345543210089
O          -1.46240064677974   -0.77840481679783    0.68329527424719
O          -2.43384162871461    1.07881466728614    1.89727592178314
H          -2.40980890788577    1.24083982825732    2.83512542450227
O           0.88820249946188   -1.41213301581372   -2.15153456601597
H           0.33995326926797   -2.01396064022502   -2.65659363109898
O           1.98694103422638   -0.16951562737517    1.72308125393818
H           1.84886547269808   -0.41161962164523    2.64242593266080
H           1.26146750367563    0.45334712024741    1.52192929889498
O           2.58224510908224    0.73047986135912   -1.04594476877554
H           2.67548397836005    0.53172731125272   -0.10864106245811
H           2.55045539296024   -0.11803019699530   -1.49674344271796
O          -2.73120419156889    0.70933168093186   -1.08557044897546
H          -3.19773526994815    1.34105801343051   -0.53464633009289
H          -2.38517221503190    0.03769354828702   -0.45835847297780
O           0.79681915958704   -2.18303647738952    0.32386333675398
H          -0.10130053004280   -1.86299398142100    0.52363873919876
H           0.91387151793932   -1.78438883668608   -1.22131691049815
H           1.39132682254444   -1.60690674463610    0.84150975332631
N          -0.12602150479838    1.00716807113849   -1.59108413290237
H          -1.15789514272634    1.02534349862103   -1.73067600210126
H           0.27539877964614    0.07001043559913   -1.86819884472334
H           0.37749168144421    1.74524929425146   -2.07349535901029
H           0.00368138500081    1.12290758156978   -0.54683622632556
