    26
        -50.46630277  Gyration_radius:  2.51427182433 Dipole_moment: 2.598
 S           0.61646958078302   -1.10643102172088    1.43952071162141
O           0.34908425040845   -1.38235330101543    0.03527652164560
O           1.86091342196213   -0.36673019363331    1.59083544722562
O          -0.50778283551006   -0.49175926791590    2.11081838670951
O           0.83962401036350   -2.50404058200896    2.14566276501176
H           1.65983704234177   -2.79504199987644    1.76140426072189
O          -1.12910812738490    1.70979115098667    0.69377753867030
H          -1.04705986633551    1.05696702612180    1.41351276369502
O           1.79827207975343    1.53050930782618   -2.40593445827933
H           1.43916836872441    0.61668484399096   -2.55145206040343
H           1.31208765064155    2.10366286773870   -3.00093719311582
O           0.58740359449927   -0.80142594747182   -2.60218484539571
H           0.70143440455037   -1.16879450319539   -1.70934659888089
H          -0.35787638140255   -0.62235579644870   -2.66454304678443
O          -2.86324604076955   -1.46937543288673    1.23061197161145
H          -3.35773867582523   -1.83904344552464    1.96263624157498
H          -2.01436397414119   -1.16372891620938    1.60291937345164
O          -1.83029541495659   -0.22274360538159   -1.00289410683500
H          -2.58181313177498   -0.61074136503991   -0.53637618942358
H          -1.51725453184390    1.18572352581868   -0.04580022171952
H          -1.06493037828126   -0.71134732901985   -0.63579896652335
N           1.43754822714731    1.82755569488083    0.22876876599178
H           1.72660965049084    0.95126183732104    0.74886925945521
H           0.37666701176699    1.91140638126704    0.37577218269587
H           1.92182866822894    2.63188789196141    0.61366260847611
H           1.64452141655869    1.73046217943801   -0.79878112120466
