    26
        -50.46361198  Gyration_radius:  2.49246612172 Dipole_moment: 6.668
 S           0.22104522306320   -2.31271085376714    0.37304586003672
O           0.21762734721121   -2.62645898721628   -1.03591655605988
O           1.55655578996207   -1.96635626859533    0.86283079845370
O          -0.75204356400927   -1.30652541574531    0.76342893611981
O          -0.19719969535044   -3.64605476458547    1.12377189617671
H           0.22996542629583   -4.30048590998913    0.58134892590153
O           1.10444418444391    1.56485302688095   -1.27840982377956
H           1.64792683447932    1.94061306676922   -1.97190461684577
O          -2.37354105914659    0.04691912577378   -0.92439681839569
H          -2.19296516950745    0.92848089679880   -0.56877703492367
H          -1.96155460007643   -0.57122268763137   -0.29413329788929
O          -1.17150883364369    2.47000203226842   -0.05170312888052
H          -1.48666884795442    3.28993766465791   -0.43347726693784
H          -0.35255512180254    2.22622128542511   -0.52662614623903
O          -0.63466063810769    0.92873200854044    2.21407696632549
H          -0.85734731976162    0.04380914457510    1.85944486484914
H          -1.03508973676816    1.56035122652056    1.59777937402174
O          -0.15133501788467   -0.36057451485896   -2.35485916124629
H           0.06687312587540   -1.24064180579414   -1.98143745269130
H          -1.07684971939907   -0.20679148219997   -2.05793056547224
H           0.62987975162864    0.76489220738888   -1.71250441493125
N           1.74188673359992    0.57568308477894    1.17004068804371
H           1.72828787405750   -0.49701263408364    1.06180146728988
H           1.65577349160045    0.99401302276731    0.22208381021940
H           0.85837393139965    0.81885139571644    1.71979117952884
H           2.58467961979818    0.88147613559312    1.64263150733027
