    26
        -50.47116932  Gyration_radius:  2.45855913902 Dipole_moment: 2.514
 S          -2.25243625974598   -0.06518613564852   -0.20979831033237
O          -2.50173837137380   -0.09713701944544   -1.62224796559021
O          -1.60333286605876   -1.29206486825875    0.27706879506377
O          -1.52918039768710    1.10487884308480    0.25963697700204
O          -3.67843974638780   -0.02993665131950    0.49465280949222
H          -4.26777455858649   -0.06583372756412   -0.25207066806175
O           2.28817259865878    1.48007363996409   -0.09930464161807
H           2.93151458693433    2.12728767691622   -0.38886129413767
O           0.48972899038301    1.48266314984588    1.99402204113005
H           1.21183545227305    1.66447165407457    1.36555389271338
H          -0.32905156296486    1.53082240201986    1.46188901105334
O           2.25877072298398   -1.25811074003492   -0.14975875762344
H           2.45556423607509   -0.30219071724179   -0.17185048555457
H           1.65114332076177   -1.42015105208660   -0.88692859299877
O           0.01196451563017   -1.35027018608685   -1.82879670251024
H          -0.61536084797504   -1.40468728060987   -1.07800331552856
H          -0.53390573242358   -1.47336549386298   -2.60895414928325
O           0.24897545604668    1.40295616612145   -1.70301141979727
H           1.53075890142511    1.52142317446003   -0.75433212550240
H           0.22058251844089    0.47575893987102   -1.99421342698628
H          -0.50321193016512    1.48089206081342   -1.08678178467711
N           0.50979860997792   -1.12500885970691    1.82669492509276
H           0.54866826099204   -0.08626379703622    2.08016043547898
H           1.28918447378910   -1.31156045121583    1.12938733035854
H           0.56682465504318   -1.72833238515985    2.63839527727006
H          -0.39905501606479   -1.26112834188123    1.30745216555179
