    26
        -50.46207100  Gyration_radius:  2.65599205784 Dipole_moment: 3.655
 S           0.86786465563729   -2.28910578590467   -0.93648384652047
O           0.51914276501516   -2.89880285433718    0.32834124233183
O          -0.22734913392135   -2.26628283403701   -1.88790700166649
O           1.46657747333518   -0.96315313442645   -0.76535616934350
O           2.01757373188678   -3.18807521014553   -1.56961001101442
H           1.71310403085225   -4.07386217335716   -1.39678880402197
O          -0.10838328776129    2.70521519115785    0.55127949452220
H          -0.00823679248244    3.63708594384781    0.35393871495162
O          -1.72547474822982   -0.16493440676456   -1.90948628597930
H          -2.44198993673824   -0.36498818643136   -2.51364128986972
H          -1.15009624902101   -0.97888985809396   -1.90157541849589
O          -1.97405676759993    0.63503275295960    0.66827714193381
H          -2.02060894906132    0.33940058010706   -0.26295048742177
H          -1.57577838286279    1.51933471470584    0.64533894916532
O           0.91381834730774    1.67395286625142    2.86412585082018
H           0.62886023996227    2.12414316939439    2.04243516034530
H           0.40522158580264    2.06182178393448    3.57742080881269
O           0.52955200727098    1.40291987487659   -1.61839665001959
H           0.21187842052307    2.22281685486765   -0.26523300964385
H           1.06177528278097    0.61296700371141   -1.40723386812040
H          -0.31254772749228    1.03841049107998   -1.93383494947692
N           0.24268344900021   -0.55724093223746    1.50196118056823
H          -0.71550335357157   -0.18173520442690    1.23899789618055
H           0.19558825015962   -1.55765258573473    1.71971183434451
H           0.84573372530411   -0.54022032426206    0.63689475312065
H           0.64065138389695    0.05184228316868    2.23977477450292
