    26
        -50.47116818  Gyration_radius:  2.45855165904 Dipole_moment: 2.541
 S          -0.18369144536608   -2.12797527644957   -0.74775874020910
O          -0.82644764218214   -1.82797086190837    0.54108171709613
O          -1.10268345493615   -2.06730476478694   -1.84767426864998
O           1.01900926616657   -1.32782358290709   -0.90642799036160
O           0.29059534990580   -3.64302537631907   -0.64472740502106
H          -0.22741157604210   -4.05838659395139   -1.32690335526559
O           1.08544744226463    2.47988706038833   -0.33220419108945
H           1.40458535547796    3.27475531557530   -0.75994849697254
O          -1.06767685619189    1.97827489387801    1.28466673522842
H          -1.65951625183021    1.52640752401556    0.66467514201339
H          -0.34099580387685    2.34112386087319    0.74312834737097
O          -2.20143090838590    0.17014279493952   -0.53743450383949
H          -2.79007148091787   -0.20626127217048   -1.19595949924793
H          -1.76912101920992   -0.60476943843396   -0.12164093685680
O           2.41046787940013    0.29951548114692    0.71930212971121
H           2.15381038055625    1.16130899013836    0.34386162195226
H           2.11107405109237   -0.36232486523258    0.06496339693728
O           0.01010939158890    0.85815216991402   -2.04997230602511
H           0.45989615731390    0.01599216594038   -1.85002385994191
H          -0.89209989939476    0.73017562602911   -1.71097289583294
H           0.70261952060505    1.90302820593171   -1.05679852252978
N           0.28440006121411   -0.10672113704283    2.18342756656318
H          -0.30067029723098    0.76005419392341    1.99669112545525
H           1.24937492402940    0.05933478545959    1.75222816521690
H           0.33036210149072   -0.33528730372122    3.16920196340995
H          -0.14993524553604   -0.89030259522907    1.62521906088518
