    26
        -50.46211433  Gyration_radius:  2.65501337766 Dipole_moment: 4.129
 S           1.28229896522579   -1.45530681658178    1.79679813637921
O           1.11212504366892   -1.55798838588235    0.33596371503575
O           2.14843356749498   -0.34591160621570    2.13237039452015
O           0.00820768285015   -1.46382767652460    2.47576948610844
O           2.04392171178462   -2.77549014292961    2.24553575597659
H           2.95900850233788   -2.54667408951800    2.11370969150434
O          -1.15331986160236    0.76729772467164   -2.35839541120554
H          -1.65178226157039    0.62994816614348   -3.16458678529156
O          -1.37267471312580    1.71691059233148    0.25616905815227
H          -1.76226328862218    0.95061663457872    0.72266781769513
H          -1.53836598910132    1.56220629374641   -0.68709410655556
O          -2.16780303747397   -0.62713512758369    1.35772195609827
H          -2.86424720854308   -0.76352783626924    2.00165051209142
H          -1.33609132050928   -0.95684481236469    1.79284044029630
O           1.26915959501861    2.01858747330956   -2.41627759950082
H           0.41918439952228    1.54074143431523   -2.50983704617243
H           1.09413484508932    2.93234802868827   -2.64514015008620
O          -1.17244498884681   -1.50062146826930   -1.06769543362258
H          -1.10937434659017   -0.12907542348265   -1.91472871630241
H          -0.30278045926322   -1.69099489481053   -0.66639556149021
H          -1.75142854797448   -1.33309186142185   -0.30757063053183
N           1.18461216435808    1.03450064108011    0.09636812465485
H           1.53758504644913    1.48707512709280   -0.76734907375423
H           1.13804132971820   -0.01323548451591   -0.02723298829717
H           1.78359023528700    1.12705843171664    0.92418417795747
H           0.20227292436149    1.39243508881759    0.28055423645777
