    26
        -50.46911894  Gyration_radius:  2.45459729892 Dipole_moment: 4.024
 S          -1.12004818633261    1.91976934673976    0.27129031416400
O          -1.03399041611536    1.36568159217863   -1.08516404929116
O          -2.33816848297093    1.58861948540867    0.95169663450778
O           0.08827003494193    1.59862225484575    1.01822609494462
O          -1.12232239575676    3.50089590437577    0.08933138257984
H          -2.01930994016353    3.72933693515609    0.31229825372337
O           0.33692858465517   -2.29614322399514   -1.37489865905018
H           0.12442365145292   -3.07977585822715   -1.88214246249313
O           1.44888327651339   -1.85836384854383    1.19938815577241
H           1.13772839993144   -2.18599151359229    0.34289403749191
H           0.65749597662913   -1.59542452720222    1.68787655203828
O           2.49347771332631    0.51250238044831    0.54006503397267
H           2.30617433071582   -0.38339079945994    0.90771289725480
H           1.78890117000856    1.07855938816509    0.90402890649650
O          -0.94130730933673   -0.59496222496267    2.05489811807953
H          -1.74073275298804   -0.32396850188440    2.51263908047308
H          -0.52585060423349    0.24519194746858    1.76346481539048
O          -1.79927521583229   -1.15054391275481   -0.46912337271060
H          -0.53699046198492   -1.92335580138670   -1.04791483476527
H          -1.64439779986271   -1.09575181990580    0.49394574803067
H          -1.75185749611922   -0.22931434926914   -0.77771082754749
N           1.25083698176485    0.23701064990382   -1.71341865137849
H           1.68590661949369    0.57502450872269   -2.56396120573171
H           1.88692939072147    0.37940157248872   -0.84193655274386
H           0.34846673039910    0.76001628683678   -1.51671179514153
H           1.01982819113574   -0.77364589156036   -1.77677362407124
