    26
        -50.46911894  Gyration_radius:  2.45457636709 Dipole_moment: 4.023
 S          -0.12883426712143   -2.16580196816068    0.55281030830977
O          -1.14534652775106   -2.73966201139513   -0.28019201669998
O           1.05733631750314   -1.72009286696223   -0.18777794251291
O          -0.60206188102887   -1.09920249771522    1.42438742945030
O           0.37710796383869   -3.33098897345954    1.51172449666135
H          -0.01025854568810   -4.10409264165929    1.11319651085275
O           0.89804565556570    1.89458139448627   -1.69689191855212
H           1.15874135688392    2.31872622336010   -2.51461914124666
O          -2.30232735589796   -0.17259729687518   -0.36373226894303
H          -1.74566321728655   -0.51147045992543    0.37021626085263
H          -2.87605119495202   -0.90797784063964   -0.59207670539753
O          -1.16600804397250    2.36524695964492    0.19320904136972
H          -0.50306051698600    2.38223320730840   -0.51247630492170
H          -1.76905936184004    1.64208902321544   -0.02457616356829
O           0.21801965774461    1.32393262491339    2.22961901179173
H          -0.18157524425337    0.43530642527060    2.22653341922235
H          -0.36534105779155    1.85995013346639    1.64202992491179
O          -0.24785115502847   -0.38320184859525   -2.13878128722595
H           0.25046420633403   -1.03196412100435   -1.61257457924103
H          -1.10790358957091   -0.30446776421759   -1.68206439210936
H           0.45018319649472    1.03259333029137   -1.95365804684907
N           1.98085070904872    0.65032717607366    0.45864387928224
H           2.96447853426356    0.68510620880989    0.69998624475541
H           1.76972602262344    1.23465780433380   -0.37368485567207
H           1.68109791120895   -0.34326368221934    0.23653099591507
H           1.34529042771377    0.99003345163880    1.27421811959322
