    26
        -50.46371174  Gyration_radius:  2.5086305471 Dipole_moment: 6.023
 S           0.79365424467900    1.54550923360367   -0.88929922473703
O          -0.40606843367145    2.36550528272202   -1.02360711504074
O           1.18820733153891    1.44888366852103    0.51121833330301
O           0.67278545264598    0.25524762037743   -1.52978671986568
O           1.95021461212359    2.30999054214127   -1.63874680860704
H           1.96464249412135    3.15114483326623   -1.19448026752370
O          -0.37792051640296    1.42055566990849    2.68806737360487
H           0.31231657215687    1.62942597574399    2.02730051001769
O           1.95749595586414   -2.10672227179513   -0.70470768210640
H           1.72974619977462   -1.27483706198951   -1.14633341239697
H           1.30997132681287   -2.75527975445879   -1.03013773111321
O          -0.37191934418285   -3.31965010179989   -1.64163684706233
H          -0.48330014121764   -3.06062253461491   -2.55789513632387
H          -0.88013415769050   -2.68436969969580   -1.11114573022101
O          -1.19749863913631   -1.05555763293832   -0.20936531344533
H          -0.57260569720007   -1.22955829857748    0.54683194863982
H          -0.60730895509692   -0.61585611799285   -0.86110262157312
O           0.80956492697125   -1.05439589774098    1.47304812082726
H          -0.15084384775691    0.53948156233788    3.00425242420712
H           1.36203817474129   -1.64335083224934    0.91552375198707
H           1.08638638623287   -0.16315394957303    1.18980696181486
N          -2.05786583702331    1.26817755483785    0.64670387441496
H          -1.56940783096633    1.37153513703324    1.57899113229112
H          -3.02748557629044    1.56257488533496    0.68076208331706
H          -1.49124517842982    1.83599227175004   -0.05588588633214
H          -1.94341951266778    0.25932992589183    0.33162400188849
