    26
        -50.46392474  Gyration_radius:  2.36935148594 Dipole_moment: 4.585
 S          -0.26434215442352   -0.47645186304936   -1.41877832614898
O          -0.69342084124769   -1.38108380596092   -0.35867979074917
O          -1.35967417446833    0.14778177036746   -2.10613267347488
O           0.77780167520898    0.43214834120170   -0.97024203997265
O           0.47869089832236   -1.40674943087458   -2.49070888566603
H          -0.21766933524829   -1.74346715799143   -3.04695385728806
O           0.61093562419887    1.44404918471944    1.68001784955314
H           1.10669854365971    1.63676124476180    0.87660245117956
O          -0.45438376595596    2.80667359539171   -1.54407689006272
H          -1.02966311553684    2.54010099173562   -2.26616385738898
H           0.14552184222126    2.05378200118593   -1.41670953466371
O           2.69841372941101   -1.30594859040685   -0.33049552068819
H           2.74733287382583   -1.93429762826296   -1.05249041582001
H           2.10402709235073   -0.59626507620407   -0.64493702895014
O          -1.86635835383960   -0.94544784759929    2.17531663825908
H          -1.78454531115992   -1.29026642530618    1.27840594630751
H          -2.16606091913591   -0.03887700009180    2.06372948985402
O          -1.76221916141047    1.37096730673150    0.35711794328149
H          -1.81430933773428    0.71939512468345   -0.35425227503547
H          -0.32690679984551    1.45855465160150    1.39432361985724
H          -1.52294597782432    2.19427459109575   -0.10874842882474
N           0.93838662665439   -1.15954260875834    1.68974397530867
H           0.22988556424069   -1.34991544136329    0.92795231843184
H           1.85891165806256   -1.38874906920098    1.28220591966524
H           0.86377909712854   -0.10613524910853    1.85609159118004
H           0.70211401268802   -1.68129160951005    2.52786178205481
