    26
        -50.46627187  Gyration_radius:  2.44595620215 Dipole_moment: 6.903
 S          -1.30642076602768   -1.27693474337069    0.79160929489529
O          -0.95970728977507   -2.60006504769384    0.35932615377841
O          -0.23503965237977   -0.60061803105599    1.53172285606869
O          -1.81048492628121   -0.39738920341633   -0.25316404156307
O          -2.49505876217616   -1.45452946540800    1.82741458637853
H          -2.50884654884280   -2.40217322928229    1.90107010281367
O           1.91339728553710    1.41914989341122   -0.81807723082157
H           2.43787124360536    1.87503286521654   -1.47661121058719
O           2.37306454829773   -0.95759861479231    0.73746601513273
H           1.50029706989395   -0.93660328581703    1.16169880097825
H           2.45454436707426   -0.12302546278305    0.25752780168181
O          -2.23342378590470    2.18123044460623   -0.27854067997968
H          -2.26368771934603    2.40864713469342   -1.21020174933818
H          -2.26481259408975    1.19602692497392   -0.24782534423923
O           1.22784170188429   -2.44157017518797   -1.26097849044554
H           0.44498700739301   -2.71463047614508   -0.75373018570810
H           1.85786584645472   -2.11540117219825   -0.59112391464704
O           0.23060396751850   -0.12018220615114   -1.99462588635378
H          -0.58294167950594   -0.20481765688390   -1.46648641842252
H           1.27696258354151    0.81861172321154   -1.33035344508019
H           0.65222517487254   -1.01567215723261   -1.92668699435611
N           0.06542350397645    1.92339204273638    1.02230577787394
H           0.86255092246508    1.91777833870777    0.34203492292893
H           0.26322198278512    2.50225119874962    1.83089308967576
H          -0.82009090811647    2.21678845331787    0.53202388689087
H          -0.08034258285456    0.90230189779298    1.31331229244618
