    26
        -50.46627191  Gyration_radius:  2.44596498111 Dipole_moment: 6.901
 S          -1.16989902845653   -1.59087441927599   -0.25395535920720
O          -1.49868203942673   -1.68892254403164   -1.64682524396507
O           0.27168869854190   -1.63930783787206    0.01485618911455
O          -1.75985300147886   -0.45646165426335    0.44198329168968
O          -1.77578557990637   -2.88854583023927    0.42893562620138
H          -2.06897076478732   -3.35910251760333   -0.34314743739641
O           1.71467406951564    1.84321729948333    0.08352124255719
H           2.01773028242829    2.75059641970433    0.04612173269540
O          -0.31331095095873    0.38043261610233   -2.96915534875188
H          -0.83951906071717   -0.39041035148191   -2.69781564499936
H           0.61297246747732    0.11942997446346   -2.80827879520643
O           2.00040776456307   -0.38372522766057   -1.71597986927775
H           2.13276675435786    0.40892486554204   -1.17962454170478
H           1.45866384857433   -0.98235878616033   -1.17721276587949
O          -1.28403149627307    0.55217226992897    2.80528069185986
H          -1.61864083404977    0.09508978921678    1.99802657422437
H          -1.63943931006914    1.44230614302352    2.76036164910167
O          -0.71153610833634    1.72726978414851   -0.74455102182914
H          -0.62028314337173    1.40282040437893   -1.67767236718317
H          -1.19294256147083    1.01057601572375   -0.29450622344497
H           0.76185294673177    1.84938326379796   -0.26321247000723
N           1.12675508266974   -0.03743965233969    1.86502865398375
H           0.26626461752573    0.26337262904409    2.39379695814617
H           1.49889606958259    0.76680597083700    1.30565532504359
H           1.83285968866646   -0.42995068176734    2.47770499946457
H           0.79736158866808   -0.76529793270015    1.15066415476986
