    26
        -50.46130661  Gyration_radius:  2.45976891922 Dipole_moment: 4.258
 S           1.84653307032620   -1.15851542199384    0.11321219569326
O           1.68079045515330    0.10378062277009    0.85331783028344
O           0.88550992165414   -2.15451797301999    0.52955059580902
O           1.87454875259265   -0.90539954093540   -1.30878410461097
O           3.27372124779100   -1.71544232535839    0.51335856374479
H           3.13526593545434   -2.11194231200951    1.36853075574540
O          -1.70488234882643    0.06505562401048   -1.03541248274966
H          -1.44121948920392   -0.69518776862740   -1.60461597894139
O          -1.66481724154225    2.61077353428660    0.27335782180490
H          -2.38882978963141    3.04984111110849    0.72277675228185
H          -2.04273549732275    1.83621861141811   -0.16647938550774
O          -0.33714192144799    1.17614899255423    2.36549436677781
H          -0.67957916060564    1.81544360513558    1.72355352206598
H           0.50663604825859    0.85617152489028    2.00881722243115
O          -0.43308659053353   -2.02589208607727   -2.04552097317128
H          -0.51905792975475   -2.67841609749357   -1.34427362741875
H           0.47100639991482   -1.67300210745518   -1.93435263020834
O          -1.44841218433954   -1.03903083469154    1.29017097808503
H          -1.16564044891828   -0.31695633320373    1.88785394937702
H          -1.72954739499448   -0.35161782205890   -0.12067853359565
H          -0.64256539751507   -1.55934787415896    1.11054776400597
N           0.51540573487343    1.40824644480802   -1.05546314978009
H           1.05187395588852    0.98672253429341   -0.23518852279474
H          -0.43548193246375    0.86685335992272   -1.09637840450822
H           0.33317481422472    2.40031149852370   -0.92067126967260
H           1.05853103096997    1.20970103336400   -1.89272323514226
