    26
        -50.46361277  Gyration_radius:  2.49261179669 Dipole_moment: 6.648
 S           1.12939699066981   -2.04181374614151   -0.31002673052387
O           0.59990028800034   -2.23071634536688   -1.63964623440277
O           2.33586667691107   -1.21283301285906   -0.30355746102609
O           0.15885837332946   -1.55302621891747    0.65504783383915
O           1.57150707798122   -3.47861530693200    0.19636475621579
H           1.88053632046763   -3.86832270130477   -0.61447072280760
O          -0.18308342042115    1.96740397839327   -1.18481268325467
H          -0.16794875973579    2.57968210961230   -1.92128480809344
O          -2.39388797887570   -0.86065376884253    0.09722194120928
H          -2.38194534084016   -0.01011891033641    0.55840147874170
H          -1.56261252340547   -1.30026246867451    0.35202054283675
O          -1.82570900025842    1.77371240615594    0.99954400974569
H          -2.53712249514535    2.41458419382094    0.97515276526554
H          -1.27736527446627    1.92087617364413    0.20381128328568
O           0.15264545176087    0.42794157201977    2.44086675282243
H          -0.66793375567836    0.88273223507590    2.19842550195359
H           0.10805828977720   -0.44294493925520    1.99572710342665
O          -1.05483799203407   -0.22227170962416   -2.12753403512230
H          -0.50020872626295    1.07594839661706   -1.58274112232044
H          -0.41131875302855   -0.96126917052270   -2.09064604870899
H          -1.74105283608842   -0.48103765747628   -1.47140562293915
N           1.77296938411801    1.15444329236746    0.51516211693962
H           2.07409644246567    0.18057353102482    0.16410931338981
H           2.57974905798518    1.74315457132961    0.68735047477638
H           1.13630746153163    1.56774053961838   -0.19554305864724
H           1.20513503123759    0.97509297657532    1.40246263339445
