    26
        -50.47086750  Gyration_radius:  2.41846377328 Dipole_moment: 5.111
 S          -0.09359751706914   -1.75147292678982    0.32881936990824
O          -0.86898760416443   -1.08105320417882   -0.71674719186196
O           1.17270588124958   -1.03128640003021    0.54873854547945
O          -0.82636092911157   -1.92595659804475    1.54902326776126
O           0.29696753976257   -3.15998300724696   -0.23555811306553
H           0.65465113466199   -2.96096424439245   -1.11473192104584
O           0.37601729334209    2.48737138203161   -0.52626343191472
H           0.69197698431275    3.30718245327323   -0.90820494687512
O           0.59743364693499   -1.90529395277336   -2.65191159813508
H           0.09917310241068   -2.28867298755216   -3.37607874553875
H          -0.06181864230620   -1.48726481959627   -2.04602845444498
O          -2.14266624212814    1.19201468515910   -0.06796110258283
H          -1.45237529473531    1.82193837219881   -0.31188411896482
H          -1.82191106842258    0.33000833866652   -0.39238274410080
O          -1.75444351256669    0.42075939307589    2.44999357525343
H          -2.16544396829470    0.75577643585367    1.61980425178851
H          -1.58661303152845   -0.52889640450259    2.28039713197430
O           1.76040980364891    0.48969808870406   -1.53867516891515
H           1.52823519226537   -0.06243484146246   -2.29313447951968
H           0.85387686495783    1.75724563336164   -1.00121907000775
H           1.66723150330863   -0.10715691258610   -0.76590963591457
N           0.63714321316746    1.17120761081315    1.85356175466906
H           1.27256424536706    1.48311562708986    2.57905895357401
H           0.56349439754214    1.86101376162258    1.08101627845124
H           0.96369728992462    0.26158919378876    1.41898836024298
H          -0.36136027252982    0.95151531352452    2.23728921380032
