    26
        -50.47168700  Gyration_radius:  2.49104979667 Dipole_moment: 3.000
 S          -0.41377305995275   -2.24276494083500    0.31952631615826
O          -0.19418933091408   -2.40122893138718   -1.11410346163323
O           0.62297715083768   -1.39579724840357    0.90480302162541
O          -1.74595997061761   -1.81223537416074    0.65961704611824
O          -0.22458362985250   -3.68231606682898    0.94858876899399
H           0.61045260391489   -3.94060547501206    0.57392585665347
O           1.10614975987055    2.39255017757520    0.64182349636222
H           1.38233256569832    3.17536408240103    1.11861895376004
O          -2.48503516700753    0.66292716301059    0.51897811712149
H          -3.44247776938009    0.68951355687551    0.54497604219147
H          -2.23813210604411   -0.29682919599880    0.54285391079451
O          -0.79981076236734    1.83814014625745   -1.26613801424935
H          -0.13884463760767    2.22121623516902   -0.66117413473486
H          -1.49433278602002    1.47113159351025   -0.68625033349957
O           2.48812196385838    0.17903172579272   -0.22824971107674
H           1.98834534024004   -0.46415148011025    0.31134805786822
H           2.20550671573569    1.05131980503310    0.10183192034678
O          -0.24436095148260    0.78616674569624    2.17997343831364
H           0.61399586490837    1.81940927737849    1.30017678396542
H          -1.14913297782463    0.85961654140406    1.84268400466935
H           0.07663583868711   -0.07924611874833    1.85308565611227
N           0.69510269454891   -0.16548404452596   -2.11383190277227
H           0.01869064419399    0.62465419561204   -1.89432844459919
H           0.92361571891536   -0.19552970578799   -3.10080153931835
H           1.55598888830828   -0.00635339348531   -1.50674539170935
H           0.28271739935276   -1.08849927043158   -1.79118844746189
