    26
        -50.46161850  Gyration_radius:  2.73553597014 Dipole_moment: 3.825
 S           0.19471594484349   -2.46356562027772    0.53169314601116
O           0.45374721833621   -1.64783034662851    1.71618951435827
O          -1.23079918637987   -2.69514439352679    0.34949089516831
O           0.83586541051082   -1.93558153860910   -0.65175831182272
O           0.84923866620980   -3.87862027468571    0.81507435212919
H           0.38501698176719   -4.15978298569095    1.59718159981305
O           1.18454827028385    0.60847204376108   -1.48915401151430
H           1.52894515665257   -0.26285537041080   -1.23050188748756
O          -2.59069619822850   -0.55127883196909   -0.12038414411139
H          -2.12072900002799   -1.41061382539818    0.06439253292847
H          -3.51387327228247   -0.70680539772021    0.08281846407320
O           1.93960379428295    3.06570215245714   -0.47657197685566
H           1.83321199802021    3.71362150879100   -1.17464811584511
H           1.81570198303431    2.19427246923794   -0.89109413234445
O           0.46503175092286    3.04160779769656    1.79246081991379
H           1.02069164295034    3.18167089196338    0.99671810789509
H           1.05914043305083    3.07599678507316    2.54360281984852
O          -0.91693590127723   -0.72806019455483   -2.40119267981724
H           0.44366187659858    0.36901966643395   -2.08996260073216
H          -0.40691036806680   -1.42300972293902   -1.95134773204233
H          -1.69483104934098   -0.58830531330214   -1.84482000264215
N          -0.31828529701987    0.65717506622544    0.77987958008758
H          -1.30658919896466    0.48718973483286    0.53525995205925
H           0.03003844367012   -0.20377959948731    1.29141906407926
H           0.24183313353100    0.72847865008697   -0.10234159100731
H          -0.18134325312030    1.53202663864387    1.32759633787482
