    26
        -50.46690451  Gyration_radius:  2.50936990538 Dipole_moment: 2.766
 S           0.99255971099117   -1.53888656288542   -0.37096274068639
O           1.19285553481170   -0.11334297732301   -0.63925548985239
O           1.82750722802886   -2.01799302292245    0.70159782010186
O          -0.41373048266231   -1.85490136472298   -0.24810847913857
O           1.50448911059973   -2.30100738205788   -1.67837005230464
H           2.39455512004347   -2.53130631588314   -1.43348022978566
O          -2.04259578258160    0.01053453339443    0.81782544633770
H          -1.67020912666332   -0.85835834890565    0.58470791618513
O          -0.85612879079060   -1.08606008127729   -2.78541168617031
H          -0.80628386611355   -1.46164686166192   -1.88904602102126
H          -0.22756980419608   -1.59309870753958   -3.30099410711256
O           1.28561668472786   -0.87386340709995    3.04980282978565
H           2.06926448596044   -0.97589702761090    3.59228470970974
H           1.45966312531815   -1.37862197704205    2.22771358235374
O          -0.59755736142997    3.36735753033013    0.19596144407339
H          -1.26563318947701    3.80512111371976    0.72565653205727
H          -0.15415832086318    2.73514538703179    0.78891931665221
O           0.32659153687461    1.15359893097696    1.57515986830616
H           0.63771618502019    0.60604654914698    2.32054351722254
H           0.77299103546530    0.76571479080897    0.79884931515972
H          -1.35551205968871    0.43415802667611    1.36783362918436
N          -1.03069151474561    1.16759551534510   -1.31220934772551
H          -0.93718466375512    2.17481321502481   -1.09537755272236
H          -1.64072466831178    0.72404924916272   -0.55697325543892
H          -1.37240469994827    0.93899625920775   -2.24363129507669
H          -0.09342541672912    0.70185295591621   -1.19303568028034
