    26
        -50.46690454  Gyration_radius:  2.50944282332 Dipole_moment: 2.764
 S          -0.75180688393440   -1.28158376318973    1.13223533962355
O           0.60559768614839   -1.03119074339644    0.64346469363484
O          -0.92397553218694   -0.87831227085344    2.50511091275328
O          -1.74184956088035   -0.77126675390135    0.20914535314078
O          -0.92499046860050   -2.86978926319305    1.13313281977875
H          -0.72298522194939   -3.08698850986638    2.03705237190644
O          -1.14732029737273    1.46154761607346   -1.18032661314777
H          -1.66172899761239    0.78872927572513   -0.70008026332218
O           2.53199499898415    1.69433470893842   -1.56502089111459
H           2.48198479970387    2.56119348680253   -1.97072782091934
H           2.11517801578636    1.78136928588539   -0.68945022868248
O          -0.88059040478445   -2.44324106487512   -1.71112171928548
H          -1.32613414750067   -1.85297088308086   -1.07857423057920
H          -0.90939666402182   -3.30964254418856   -1.30299943591810
O          -0.61262679069405    1.74413339031110    2.88274283035590
H          -0.81815179998849    0.79166777240529    2.77554573119026
H          -0.39723458340764    1.86441520754527    3.80896949868400
O           0.87732201881012    1.64914877081720    0.65207232762530
H          -0.53736492287090    1.82959267395710   -0.51206660043388
H           0.44253271447071    1.94721907391131    1.47325293884753
H           0.90081688474149    0.67749733704585    0.74033333000833
N           0.69988861218517   -0.26401223560642   -1.89455959132822
H          -0.10872863637176    0.42934544521411   -1.82554205967701
H           0.75080256960592   -0.69709844578290   -0.93573011112791
H           0.49233513473277   -1.00774402205873   -2.55816110196919
H           1.56643146682959    0.27364645604110   -2.06869748997382
