    26
        -50.46229137  Gyration_radius:  2.41110926953 Dipole_moment: 5.671
 S          -1.15862795203445    0.70200183738094    1.49914676751950
O          -1.39321917573203    1.71459156096183    0.47385558726473
O          -0.73814326732743   -0.55698067122752    0.89701036224478
O          -0.33097540048237    1.16419468818188    2.57876008141062
O          -2.58202921726565    0.38051258740211    2.13492479956581
H          -2.63666080433901    1.01700343756780    2.84021403072668
O           1.75402278050033    0.85715830826028   -1.57325470254611
H           2.39115263958807    1.49378115947385   -1.89935545449135
O          -1.78634286158571   -1.60287408275050   -1.39150418890907
H          -1.74816061070934   -1.37884406990397   -0.44430639111655
H          -0.98945898865268   -2.13525403653738   -1.53893120598192
O           1.67129641255890   -1.56930499131168    1.88555905013907
H           0.73858083689387   -1.30741507182308    1.87778439347095
H           1.78450799945902   -2.15955634548405    1.13258280580826
O           0.93515959745882   -1.78709475583751   -0.96117765803528
H           1.48639200507255   -1.10135279557189   -1.35403715709174
H           0.43852974724644   -1.34105316202025   -0.25594689500773
O           1.83577978268493    1.01416112433678    1.02307382238602
H           1.08632305898243    1.27853717440552    1.58435776786030
H           2.08003046875777    0.13404009003454    1.37140159741192
H           1.77247479111562    0.94630922748379   -0.57651867465316
N          -0.92463572104181    0.85337111158932   -1.89763678052155
H          -1.33298882255197    1.39765327576219   -2.64899989208258
H          -1.17044997103116    1.27377040748441   -0.93670432163652
H          -1.30125616711284   -0.13747074621191   -1.87608535251424
H           0.11869883954738    0.85011470835364   -1.94421239122284
