    26
        -50.46690452  Gyration_radius:  2.50934423901 Dipole_moment: 2.770
 S           0.33107348855135    0.66907074349934    1.71281298708912
O          -0.88701108641435    0.37750337221307    0.95419283572937
O           0.59494773974701   -0.31922454185407    2.72807938070706
O           1.43963866164843    0.95938604771055    0.82993011253729
O           0.03213548891957    2.02219374009756    2.50760387667059
H          -0.23726639075389    1.69268754424557    3.35845531238997
O           1.53982874675978   -0.32373647413767   -1.53913297265790
H           1.82817933252772    0.11461114268076   -0.71890975214210
O          -1.90800539012702   -1.22847713798470   -2.56514460671211
H          -1.49366701778484   -1.64164500958943   -1.78688576565354
H          -1.60294911214909   -1.72686364657378   -3.32483603475915
O           1.05971382657497   -2.75296346617902    1.73938400047273
H           0.97882572267425   -1.86147080488161    2.13895179021672
H           0.87858451756969   -3.37533954838107    2.44550374661778
O           0.14826584715312    3.10102163706576   -0.15499999970807
H           0.74062060251681    2.40310209056847    0.17513366893764
H          -0.08319545740583    3.61505943191789    0.61970230661775
O          -0.36423338118813   -1.90766704791284   -0.37313233315673
H          -0.67124710088610   -1.15545877093243    0.16763171876740
H           1.05651497999806   -1.11735158519487   -1.23813664451222
H           0.12781572860087   -2.46413966286871    0.25964132037732
N          -0.72330127922007    1.00733944925412   -1.61786076077025
H          -1.39205043144133    0.43634197578489   -2.16308619210867
H          -0.73569909175264    2.00876722633437   -1.80053529025671
H          -0.90976976851440    0.86765560823439   -0.59057882798318
H           0.25225083592205    0.59959768792083   -1.76378386678357
