    26
        -50.46627173  Gyration_radius:  2.44602225963 Dipole_moment: 6.899
 S          -0.98234561543990   -1.47232310346202    0.91183553802971
O          -1.18654911439088   -1.09646709208546    2.28104195174603
O          -1.73721106355525   -0.69535875592083   -0.06087887992359
O           0.43015489763077   -1.51747346827766    0.51791835519120
O          -1.50851618099211   -2.96400119842234    0.78667970790202
H          -1.70653196250379   -3.14577144323837    1.69848806390888
O           1.51285580579499    1.80273258438959   -0.89978889076334
H           1.72540805002036    2.68293795323361   -1.21066141028778
O          -0.10568444397358    1.37587771290635    2.67476574008161
H           0.82568989396348    1.13502533837034    2.51177080814490
H          -0.57380190916220    0.52688996554903    2.74386501749540
O          -1.55636567572060   -0.55029134094248   -2.66382889517271
H          -1.99284801643467    0.27455822584957   -2.88701598448516
H          -1.77757093417911   -0.71612658381926   -1.71714944367076
O           2.16288128639683    0.37243367113779    1.51139839997403
H           2.17267541030480    0.93336112719656    0.72481097543882
H           1.64088433517582   -0.41053495091857    1.27355447234901
O          -0.81421488069968    1.82733553811182    0.18177022508861
H          -0.61542089284547    1.85758268915053    1.15328871036396
H           0.59538534034230    1.86814154856391   -0.47302616068046
H          -1.25806227592482    0.96923060522149    0.06104643732455
N           0.96956132561135   -0.61650032233002   -1.85223641675970
H           0.77291881238673   -1.06667620260974   -0.89975323897862
H           1.30533841258007    0.35493699764848   -1.64751245862642
H           1.65819861351162   -1.15352026235998   -2.36741432211155
H           0.04317077209822   -0.57599924293516   -2.35296829157855
