    26
        -50.47071319  Gyration_radius:  2.41582058353 Dipole_moment: 4.163
 S          -1.72770070834248    0.98961663541398   -0.38205808383713
O          -1.97074206436697   -0.42742981659859   -0.50502495844752
O          -1.35405409737293    1.36417758017021    0.98347741358405
O          -0.78690518882853    1.51908623560933   -1.35537220324048
O          -3.10887454156532    1.70592997558563   -0.67508827297286
H          -2.84813288036120    2.61402039952899   -0.78418775145297
O           2.47973104750422    0.26990260731872    0.40709967555128
H           3.36649291934316    0.50538396113397    0.68180540635324
O          -0.17394082751177   -2.19731926155950   -1.36210353599998
H           0.38912161898552   -1.57237127210815   -1.87791760002925
H          -0.98516680425221   -1.68030190854286   -1.18221079251425
O          -1.37395536969313   -0.98644697726667    2.10736662462586
H          -1.36689171938693   -0.03486429697649    1.85147239003598
H          -2.02147979411022   -1.36448241668678    1.50164050798086
O           1.22214360159986   -0.09893317449454   -2.15550318808520
H           0.48268888983512    0.52186359187192   -2.00962110513328
H           1.83645771984423    0.04413180002857   -1.42319257883455
O           0.98546870386701    2.39469037415921    0.43546569936405
H           0.18415836827767    2.12360229574017    0.92652464660232
H           1.93732556519724    1.11056001467218    0.47017575102235
H           0.65756269365114    2.40107283748917   -0.47720903712908
N           0.85742752086873   -1.85211999175997    0.98521149978245
H           0.01646994932667   -1.51472815623801    1.54403970568019
H           0.47185809043760   -2.10863995158139   -0.00326371425372
H           1.53630007967885   -1.07569119858256    0.86747833964569
H           1.29463719737372   -2.65070987633655    1.43099515168814
