    26
        -50.46229143  Gyration_radius:  2.41134119569 Dipole_moment: 5.664
 S           0.39762331598127    0.61848204925463   -1.88246458323532
O          -0.73152274972705    0.35427626103290   -0.99961089314957
O           1.49131263778397    1.25117913495511   -1.15087128406085
O           0.81707973609672   -0.49974391325417   -2.68123099543560
O          -0.14410148981221    1.71521590556513   -2.90098976458953
H           0.39598553146572    1.56077727171586   -3.66908664476617
O           1.21052262239297   -1.05716049609660    1.92348481267453
H           1.94271014855912   -1.50610325758065    2.34774521439501
O          -1.60931280259490    2.05471960235040    0.94251091498607
H          -2.03308377716017    1.32409048779234    1.41893222386955
H          -1.49453701311990    1.71110041780695    0.03833954160719
O          -1.59056231006541   -2.30594738977199   -0.98101841754654
H          -2.07418889123028   -2.18936141721760   -0.15592094382281
H          -1.42956199314839   -1.41321809219393   -1.32095516574114
O          -1.55721907384243   -0.65653290949622    1.46170065233108
H          -0.77599032565560   -0.99727943496760    1.91125485007180
H          -1.25050262848269   -0.40360641677287    0.57573452242280
O           1.07762986697567   -2.01071089372958   -0.49377996862822
H           0.19389313156829   -2.41172801828294   -0.61135238308605
H           1.19484049133724   -1.48287917175991   -1.30273862510969
H           1.18660178950410   -1.40958352702479    0.98692647368658
N           0.96637672780489    1.56608631617613    1.34130872330465
H           1.07763293898704    0.60269515399208    1.72909481881489
H           1.24381897865834    1.49478571169214    0.30282378066265
H          -0.05420491327009    1.85320624325779    1.34104525299053
H           1.54876006099039    2.23724037256006    1.82911787736109
