    26
        -50.46723158  Gyration_radius:  2.51573948031 Dipole_moment: 1.975
 S          -0.59525520666215   -1.49962511018929   -1.26714044020773
O          -1.44561822597900   -2.14052943351281   -0.28433928180163
O          -0.97262080403054   -0.10728631901820   -1.47489354193665
O           0.82453211957203   -1.63078877374523   -0.99770357773905
O          -0.84917473230234   -2.25704228097631   -2.63520992591611
H          -1.79001556610531   -2.40126612202493   -2.62572713634739
O           0.48351009251211    0.03759246924964    2.31425419347789
H           0.46298252145188   -0.94636721888549    2.28328869947162
O           1.40837055551586    2.92257916747537   -0.66721718033728
H           0.44703312303817    2.86263061336955   -0.89873666437960
H           1.48753465483690    3.64690235926202   -0.04449376039413
O           0.34964848815997   -2.54096373884482    1.62675382336236
H           1.08843114623223   -2.72911028939479    1.04206750882240
H          -0.41842907009591   -2.48871417776459    1.02226305518474
O          -1.18234842785804    2.55283905839284   -1.03470898325554
H          -1.14004943392903    1.67688972627203   -1.45284544411566
H          -1.61652456840467    2.39558679123250   -0.18979829929321
O          -1.83289634999216    0.38907143149984    0.97825502066024
H          -2.35507017408969   -0.37265522773688    1.24186124801787
H          -0.39797179795254    0.30670849073536    1.97972101739205
H          -1.54464843220461    0.18029579303906    0.06440130566915
N           1.93869390735888    0.43796384632150    0.19520907250051
H           1.53272537363669   -0.31740735715902   -0.41812351539134
H           1.76657543429317    1.39179722546048   -0.20944833061262
H           1.41662221656193    0.34883477920490    1.13747831362755
H           2.93396316640246    0.28206429774403    0.31483283356465
