    26
        -50.46723211  Gyration_radius:  2.51564469511 Dipole_moment: 1.959
 S           0.92880132568651    1.48809013585118    1.06320283076329
O           0.72077134402308    0.15248887164462    1.60795943291985
O           2.08794783060058    1.53448653481869    0.19493305139086
O          -0.28396322688788    2.01054955565122    0.46153237384446
O           1.25265201883202    2.44221988007660    2.28575134137926
H           2.17451080213340    2.27036970918694    2.44903518415007
O          -0.12740369540625   -0.46917203882152   -2.31306498152294
H           0.25576553379045    0.42507097131749   -2.46454274114281
O          -2.48420216157760   -2.01170359955701    0.87156666350320
H          -1.61397935716929   -2.21791780501132    1.29764587557386
H          -2.74148837854959   -2.80256905855104    0.39506805721491
O          -0.02439425738758   -2.44391385110601    1.73503986388670
H           0.20682255175894   -1.52756723981751    1.96045333993375
H           0.55211460845577   -2.66244938782882    0.99542548540424
O           0.86339793201750    2.00442315420843   -2.11100907753528
H           0.17378004083055    2.56845936208350   -1.75112569367784
H           1.46300470291278    1.85669308481371   -1.35170424818964
O           1.67204514080266   -1.21535277464484   -0.44803563378964
H           2.47474113407404   -0.76692164216707   -0.72534418247744
H           1.35668189468356   -0.69430602037935    0.32070389537484
H           0.53160394637644   -0.91984836249019   -1.74380798264452
N          -1.91175709501854    0.19653579869831   -0.54050935351241
H          -1.26619833414604   -0.13888102480812   -1.33987756394975
H          -2.74719616684219    0.63831824404578   -0.90936360984266
H          -2.17071119547232   -0.62181133850817    0.06483860899189
H          -1.34334694853657    0.90470883135730   -0.00477093598535
