    26
        -50.46253672  Gyration_radius:  2.45953815503 Dipole_moment: 4.984
 S          -1.41714993466306    1.43817131565188    0.45195366843157
O          -0.72441374452755    0.38643864134776    1.17879737331171
O          -0.66919495265030    2.65863549966917    0.30392212318759
O          -1.95633626506246    0.92553541939170   -0.80589331515643
O          -2.67860789577603    1.79908307782984    1.35396744866787
H          -2.88268617441547    2.68212125110473    1.06390790052032
O           1.23387735006992   -1.00599821144627   -1.79526850971076
H           1.77476575891225   -1.09042155199849   -2.58122104324678
O           2.80789614479182    1.32252029825933    1.01597357026468
H           2.28761653050292    1.84630237543959    1.62850978661240
H           2.55575260558664    0.39081322770153    1.16939623124076
O           1.52142139099743   -1.09565001439374    1.01892071538716
H           1.60668463312449   -1.24255566170742    0.06674953473000
H           0.75133629685154   -0.50493759061582    1.12145519491164
O          -1.12619151513019   -2.23413018592953    1.40076714321992
H          -1.19775571069306   -1.27709475336921    1.58747503263816
H          -0.20157342393542   -2.44109112987258    1.58713235278044
O           1.22622582228962    1.49779726159861   -1.17665893636671
H           1.94267147819943    1.54622876333472   -0.50723470422580
H           1.19357322531930   -0.01982833989760   -1.59797430202641
H           0.47688068450910    1.96722011942299   -0.76844122102002
N          -1.31500078107279   -1.53839313248088   -1.16041677842364
H          -1.92671718658737   -2.04653818476500   -1.78906813381018
H          -0.34157337325445   -1.47523772545596   -1.53249729697205
H          -1.64865734797970   -0.51906587340213   -1.03930944088939
H          -1.29284361539662   -1.96992490539855   -0.19494438404500
