    26
        -50.46253665  Gyration_radius:  2.45967109941 Dipole_moment: 4.998
 S           1.10640167885142   -1.15219852765291    1.31495110593366
O           0.79375396975454   -2.48859851129717    0.88229002258286
O           1.40020508938781   -0.21913575879297    0.23916781443699
O           0.11771997028684   -0.58759561328386    2.23118735650179
O           2.46046637005171   -1.26072949003684    2.14537350300983
H           2.35499653306920   -2.09727446885374    2.58661207475299
O          -2.22211567636559    0.72148565049238   -0.54426606575033
H          -3.16117732092248    0.68782538967899   -0.72987228922533
O          -0.03995609687231   -1.76838674287510   -2.74610348602744
H           0.10924841699044   -0.80285856214270   -2.71999282597142
H           0.77414396274846   -2.17486589898943   -2.44227160863060
O           0.23245351757728    0.83770389533979   -1.94843494627143
H          -0.68651886079426    0.94037529183149   -1.66479420529046
H           0.68452290874045    0.39535309885883   -1.20516669010093
O           1.50747930153527    2.43658422847897    0.11732818220180
H           1.29595017309912    2.48170452170401   -0.82382194340943
H           1.79913615280424    1.51307812405237    0.25131119332470
O          -1.41354668104841   -1.72371887828126   -0.41131841962587
H          -0.70187527226065   -2.04186944489010    0.17255793296791
H          -1.93144058185466   -0.23652017696727   -0.43955815989619
H          -1.07580170785692   -1.87859696506356   -1.32000875486236
N          -0.69530129637832    1.71299379261314    1.42262610633723
H          -1.41069015204144    1.46822774434961    0.70264068655647
H           0.13792297218388    2.16091768705868    0.94947961657652
H          -1.08039364589526    2.30357088137602    2.15102868140098
H          -0.35558372480669    0.77252875329690    1.82905512848405
