    26
        -50.46459623  Gyration_radius:  2.48538774886 Dipole_moment: 3.636
 S           0.59928483983301   -1.80917008981949    0.30208104721156
O          -0.74373076373904   -2.33450726478014    0.36242988167708
O           0.96222982850611   -1.25862376123690   -0.98594227931643
O           0.89182574724315   -0.84345710937768    1.36818382847448
O           1.55449422398356   -3.04502305867725    0.58565338219229
H           0.99436607420620   -3.76185876102217    0.30882264087091
O          -1.49328133374404    1.75697980368133   -0.60237177819571
H          -2.15060114671854    2.44999091145757   -0.53129626398416
O           2.25115350871910    0.93275551716238   -2.04482529277458
H           1.42948304675138    0.95439560210719   -2.58667571685774
H           2.33320911840199   -0.00627698570094   -1.82616264180358
O          -0.26226169262614    0.44207999342572   -2.77611637064019
H          -0.02861011267626   -0.35523723757484   -2.27380185946041
H          -0.84529032039017    0.94879759609636   -2.19409428041102
O          -1.01703621454157   -0.01094520937898    3.03110967283560
H          -0.26077390151164   -0.34218987026226    2.50362798337941
H          -1.19781490504392   -0.68421441495043    3.68874018644942
O          -2.38993123996470   -0.27079964449266    0.70055774250199
H          -2.11195558000291   -0.07757810915411    1.61665685898249
H          -1.88853797525322    0.95068972620955   -0.14313422259803
H          -1.90904072270576   -1.09190947070511    0.47187598552550
N           1.06346240561290    1.51505259855295    0.22003892788533
H           0.07858093465155    1.74312845917265   -0.04671204609148
H           1.62988655690621    1.38083721460082   -0.68348275180524
H           1.45873980543557    2.23465247847444    0.81568512526311
H           1.05214980866693    0.58243108617850    0.71915224068764
