    26
        -50.46723223  Gyration_radius:  2.51493642181 Dipole_moment: 1.943
 S           1.16207875721284    1.41614464697848   -0.91848224770132
O           1.50919062417007    0.82072790737664    0.36560550407958
O           1.53198812816898    0.55376932304298   -2.02270213941576
O          -0.22195452428132    1.85148559262560   -0.94328788299908
O           2.03433861267503    2.72956581106305   -1.07196765561986
H           2.87382083985660    2.39184105636573   -1.36726996917207
O          -1.45510296452142   -1.66373449256056   -0.84152721883506
H          -1.37150920705508   -1.22274411261230   -1.71790341122611
O           1.39200540090319   -0.77097640623995    2.54783795962133
H           1.41841364325643   -1.55888923251072    1.99499643221384
H           1.57689727415935   -0.03894045402420    1.93649694468841
O          -1.11438823720714   -0.14995341980921    3.11151027938660
H          -1.49676922733224   -0.93169890084876    3.51328635717757
H          -0.14685418450477   -0.33753358304590    3.01137095721680
O          -0.89589373720796   -0.05647804955144   -2.90164739680959
H          -1.29144245156303    0.80020886613807   -2.72016977263739
H           0.05575855277926    0.08389295429802   -2.72145691678356
O           1.19068779235826   -1.71470538046190   -0.32158535185837
H           1.33932630150778   -0.77300334458734   -0.09129523273060
H          -0.53192407943944   -1.88190817178172   -0.59348735682014
H           1.58468179321673   -1.81077978371251   -1.19214844447883
N          -1.84386536847992    0.46464401400450    0.60378258916595
H          -2.78137305512833    0.85059772221942    0.56717082302933
H          -1.17392306286961    1.11363975015209    0.11256039005073
H          -1.55692522868559    0.30213647173538    1.60110483671033
H          -1.78726240183126   -0.46730880426187    0.05920792367146
