    26
        -50.46208025  Gyration_radius:  2.44284844468 Dipole_moment: 6.118
 S           1.05973547502289    1.77908273040627   -0.29585945248306
O           1.75799634465665    0.63024466752092    0.29934662576693
O           1.11574640527219    1.71136344781502   -1.74399550607529
O          -0.27098317542048    1.92202366904091    0.23507155239656
O           1.87861059543868    3.06524371641206    0.11547146686330
H           2.49531724785105    3.13614012870855   -0.60529784473838
O          -0.65140263397119   -2.34957601011989    0.56055052117716
H          -1.30530589361447   -3.03518265692064    0.69912562838856
O          -2.17829550834519    0.79270615247152    2.27228910957209
H          -1.91995036616369    1.66216162963385    1.95283985149289
H          -1.33183265544852    0.37312328334849    2.52636437653545
O          -0.39829363312708   -0.22784943140434   -2.66768938207775
H           0.08955240885933    0.61148178582375   -2.50185097231739
H          -1.19959349036194   -0.18014834945300   -2.12963666735425
O           0.30161150416766   -0.37440684749184    2.41282174602308
H           0.85413986203411    0.10882708166445    1.77701804523593
H           0.10055504077706   -1.22163699395615    1.99553324800831
O          -1.84166777605269   -0.14243821728236   -0.19626492476019
H          -1.21858507065100    0.61825802018598   -0.14897348511128
H          -1.15256513636297   -1.53200388482664    0.27426422189117
H          -2.36498136560207    0.01742468024015    0.61751095075225
N           1.25955857925210   -1.50162538336204   -1.09974076211253
H           1.58224777161125   -0.65525006906588   -0.53467667479773
H           0.67154201170348   -2.08445587157098   -0.47066306146110
H           0.62091318418001   -1.10642588217797   -1.86549821231008
H           2.04593030433836   -2.01708139567599   -1.47806039853945
