    26
        -50.46723165  Gyration_radius:  2.51585277372 Dipole_moment: 1.970
 S          -1.46058989821353   -0.39620052840837    1.38562712849493
O          -2.03885232690900    0.93063192624302    1.31584508002991
O          -1.43436948345145   -1.03838558517674    0.07762213244097
O          -0.15945486818740   -0.44225635641357    2.02639806223629
O          -2.42654711056163   -1.25359272375278    2.30310413472199
H          -3.29064434116393   -0.96103945770911    2.03127751564839
O           1.29128228947568    1.92748359519385   -0.45237097811050
H           0.95534171039850    2.29105035872473    0.39878212954811
O           1.89964756497709   -2.07597705571419   -1.75048105477251
H           2.42662450203398   -1.82788022112342   -2.51168940863981
H           0.95439779461965   -2.02978191583786   -2.04338972602277
O           0.11617685719187    2.35927850686508    1.90831534631290
H           0.48633798397404    1.73672693325982    2.53962601162430
H          -0.76395216412426    1.98469015997791    1.70077393654383
O          -0.61702156541787   -1.64154549490696   -2.42862990740730
H          -0.73212915566932   -0.72614055094291   -2.70415663644305
H          -1.01049101214719   -1.67917369804445   -1.54106272229627
O          -1.11990141729596    1.15025962786861   -1.37669836097425
H           0.47986529851187    1.73278152644287   -0.96733325217401
H          -1.27322222189652    0.35221685889901   -0.82766463096971
H          -1.71708279844028    1.80774007216473   -1.01145319071647
N           1.90493419854894   -0.45660402382907    0.38864574692491
H           1.08605670261333   -0.60955547945757    1.03488424846742
H           1.76915278494854    0.53903165444980   -0.00979612285251
H           2.77062709650663   -0.52301255839891    0.91338051393337
H           1.90381355967511   -1.15074558022949   -0.39955598555846
