    26
        -50.46229156  Gyration_radius:  2.41152913209 Dipole_moment: 5.649
 S           0.66768131329066   -1.90006563901231    0.17044857223734
O           1.48627273124064   -2.22706246695492   -0.96434314420154
O           1.40624589809166   -1.25615126858140    1.25264675001652
O          -0.54654326991496   -1.15640250226059   -0.14154239474682
O           0.14539641056977   -3.28518219626070    0.75553604849627
H           0.86047139330404   -3.87544756514112    0.54172380993638
O           0.95242621940992    2.31560705744898   -0.12450081590792
H           1.65297160375316    2.96159508564989   -0.22212284812496
O          -0.80297936210932   -0.42183227954133   -2.82479485837060
H          -0.76371528664309   -0.99746964564592   -2.04645420781348
H          -1.47180682160107    0.24261343595065   -2.62648773532852
O          -1.66396004385199    1.34979614459957   -0.63150817632295
H          -1.22822983699793    0.48543689148954   -0.55474556336706
H          -0.94868693809709    1.99518500020197   -0.61366279369994
O          -2.18271964704034   -0.01205973139638    1.71456147717742
H          -2.53766940610457    0.60412863117640    1.05544647280155
H          -1.79612598939769   -0.73016241376760    1.18192914438845
O           1.56452795483993    0.33884609994051   -1.70159997914497
H           1.74483705447232   -0.56897887475488   -1.40122426642357
H           0.83469606715618    0.22460908480380   -2.34183620347072
H           1.21196034769429    1.54826918269700   -0.71259575636585
N           0.28169957322507    0.90006121815808    2.07254978441061
H          -0.75021228007164    0.65749300121333    2.05930169433978
H           0.50897811479056    1.58551505799008    1.31788711711949
H           0.58148399506413    1.23042783344475    2.98281368817514
H           0.79300020491267   -0.00876915141328    1.80257418418576
