    26
        -50.46975101  Gyration_radius:  2.4457085398 Dipole_moment: 3.861
 S           1.15113665391316    0.11672681585383    1.51123499093151
O           1.70068941047875   -1.19451998095408    1.75314629250521
O           1.61601501186889    0.70257450414992    0.24986667963129
O          -0.29399743267794    0.17594080765026    1.60327748508719
O           1.73775258039532    1.05275292069621    2.65025977347896
H           2.18243696662729    0.40721148649368    3.18821391221902
O          -1.90551671682548   -0.08181541517313   -1.76988061721226
H          -2.49870558936248    0.19314241123555   -2.46929839168633
O           0.63567414451465   -2.84566918689033   -0.05960882168419
H           1.12936612039460   -2.41995046626903    0.67126965868328
H          -0.31099331286162   -2.75532855248190    0.19947248946813
O          -1.75148257980060   -1.84473348406940    0.51596513031066
H          -2.07470481413456   -1.38801983328835   -0.27113647771547
H          -1.34636776796892   -1.15292955255083    1.06819346699560
O           0.62915267168660    3.10820002975657   -0.31250941933441
H           1.08178686853403    2.26071163784694   -0.12283551394841
H           0.87382127193952    3.70462151009742    0.39671425386892
O          -1.71731110432547    1.78602704149350    0.00247502988205
H          -1.88876946572063    0.67323860007287   -1.10269003202001
H          -1.32455749283098    1.25325906839780    0.72046494243423
H          -1.01344027788213    2.41854318784398   -0.23957538115091
N           0.68231542385823   -0.82894596007569   -1.67144700691419
H           1.11142735004355   -0.13614693687629   -1.00450606119429
H           1.21200758481217   -0.88236964243469   -2.53432138878976
H           0.69215483785904   -1.77088472880282   -1.12436972775417
H          -0.30989033253563   -0.55163628172185   -1.84837527610878
