    26
        -50.46229159  Gyration_radius:  2.41153581235 Dipole_moment: 5.647
 S          -0.32511209810280   -1.81947382514266    0.81759610414200
O          -0.43647965681481   -2.80303118665548   -0.22396304583530
O           1.05066663542669   -1.57524418978372    1.24065864700978
O          -1.01594101040398   -0.56343532573376    0.55324048559781
O          -1.07519523211671   -2.42604465500352    2.08371107172214
H          -0.93508683566068   -3.36046346009595    1.97113294305171
O           1.73056852828146    1.13546736246163   -1.41431116109791
H           2.50116215912420    1.16914876604491   -1.98233191737966
O          -2.17209021882727   -0.38501096266351   -1.98393843146456
H          -2.25129251652218    0.57362854854181   -1.93058396652229
H          -2.03360330752989   -0.68957988496841   -1.07468348025171
O          -0.89067925339366    1.93051019317981   -0.68456321719992
H          -0.05310011690698    1.97758650241141   -1.15856669835609
H          -0.94238866753457    1.02040299870107   -0.34997149019579
O          -0.76387656759559    1.69224567266089    2.06358666669737
H          -1.05530948752700    2.24699406597006    1.32365924701858
H          -1.08152209564643    0.80160244284096    1.82985399655201
O           0.47206779251812   -1.05711400142867   -2.02968663378824
H          -0.43035010403848   -0.81766396867142   -2.31934276450567
H           1.26992906071211    0.27558126646614   -1.63877006988263
H           0.32253492123004   -1.79637640792987   -1.41487522668387
N           1.64742294387459    0.92048711044483    1.27420886063264
H           0.77037935057522    1.37612066273899    1.65782076382321
H           1.76780962119691    1.14711430763575    0.26173316380417
H           2.46926677549120    1.16610480727153    1.81441459255134
H           1.46021937023143   -0.13955683932992    1.31397157052217
