    26
        -50.46975165  Gyration_radius:  2.44574548056 Dipole_moment: 3.836
 S          -1.90029954984531   -0.06284774689310   -0.05608225997094
O          -1.25055319891848    1.23612236177058   -0.25764679420147
O          -2.28642557291531   -0.69173885186005   -1.29516566477759
O          -1.10170556579021   -0.90813830829745    0.80902968849159
O          -3.25201714930408    0.25827750675610    0.71030319206864
H          -3.87668989911708   -0.18229906918232    0.14508667546869
O           2.56083260762535   -0.21175665872052    0.41179846509837
H           3.44376014195787   -0.01684361280122    0.72666941797025
O          -0.03946821937750   -1.37685039834494   -2.57116253605694
H          -0.95947223823247   -1.21325783015155   -2.27790802398912
H           0.32324722569419   -2.00207681886215   -1.90096940614622
O          -0.47069115117979    2.46527361430880    1.96951163381170
H          -1.24197094357047    2.59761111949674    2.52292088890227
H          -0.80259960146278    2.09801424077565    1.12459781748935
O           0.85431151747224   -2.43033055182167   -0.30805952078747
H           0.10033250726400   -2.05877316618947    0.18293970329106
H           1.62142710200988   -1.91426759896920   -0.02894443990710
O           0.85475440167386    0.12529349689915    2.32027751640207
H           0.10723295233251   -0.36077117944322    1.92201586893484
H           1.94629677378640   -0.08279054645917    1.19979493304285
H           0.54922256271467    1.05247241138431    2.35115224080370
N           0.98812373758270    0.76020890656387   -1.54994186051636
H           1.34951057443218    1.48830857986549   -2.15593225637602
H           0.65055102391976   -0.11119962101768   -2.11008036559331
H           1.70226856403180    0.45588453685860   -0.85015759936866
H           0.13002138721622    1.08647520434416   -1.03404731407862
