    26
        -50.46199339  Gyration_radius:  2.60817283281 Dipole_moment: 1.326
 S          -0.61056168215071    0.77823764682239   -1.84379284843983
O           0.24603710134644    1.29319826518750   -2.88540298785344
O          -0.44192628883052   -0.63764675710044   -1.59835138294349
O          -0.53066279954562    1.54054463529408   -0.59639162825124
O          -2.10737018006230    0.99394974182064   -2.37186098553277
H          -1.98395538411007    1.42039927215501   -3.21488715036182
O           0.49511159033942   -1.72934072354390    1.92363625883387
H           0.79120115856231   -2.63870225135103    1.86672505884680
O           2.29902627044111   -0.16186580824044   -2.03742219469442
H           1.89216073555059   -1.01579605013742   -2.21164069217373
H           1.69133765592719    0.47968960427948   -2.46255625828130
O           1.85214288629343    0.45313625437891    3.20495225462251
H           1.43094783187890    0.91702070638653    3.92944561809633
H           1.34025394628304   -0.35520515923193    3.05992859203916
O          -2.85710262923432    0.79056711470615    0.49475475282493
H          -3.43601694033440    0.80555515331207   -0.27044626019763
H          -2.02007488859425    1.18834177527161    0.18963213038830
O          -1.67818702153813   -1.64638548677904    0.54307980566231
H          -0.41329566837296   -1.71445261243835    1.48743627263400
H          -2.23770354107454   -0.87105087823950    0.74489542690823
H          -1.26751897157723   -1.42069551302491   -0.31600677381465
N           1.53230702154781    0.31072511987691    0.47699148702470
H           2.05067257264421    0.11011277672316   -0.41434220163612
H           0.70233515499744    0.89170040439324    0.19283513408287
H           1.17489804949217   -0.57075347999152    0.91657232008773
H           2.08594404011930    0.78871625946917    1.19221624212545
