    26
        -50.46892542  Gyration_radius:  2.49161107812 Dipole_moment: 2.535
 S          -0.69252393869217   -1.75114109267280   -0.87700230500242
O          -1.08506340424862   -0.78017484364015   -1.88067237884205
O           0.75252950580266   -1.71544790953553   -0.63032851790211
O          -1.43792963049539   -1.68040584093612    0.35489868798381
O          -0.99785715238999   -3.16729306717279   -1.51713124164047
H          -0.86878561841502   -2.99557054367049   -2.44411474748841
O           1.74339403511980    1.90739469093540   -0.73595368631361
H           1.83609578349540    1.33493552985195   -1.53089305621665
O           1.49810338162448   -0.03138248378410   -2.57019428046624
H           1.38823612036905   -0.73874333612902   -1.90674907656906
H           0.60302013730367    0.11187688585979   -2.89661174527853
O          -0.04989585954109    1.09522221421237    2.80522966284770
H          -0.05132400642184    2.03590006948453    2.61426915540320
H          -0.92762039469927    0.76429168799084    2.50810387834162
O          -2.36953037493529    0.30069050204291    1.74250471175804
H          -3.11267741167759   -0.02027198699976    2.25559389298241
H          -2.05239193915477   -0.47322633239897    1.21293844643132
O          -0.89728630610370    1.44844574536434   -0.40854450235474
H          -1.02697943994364    0.69476175585342   -1.01372478493398
H          -1.56545795090014    1.34326089346942    0.27648963484594
H           0.78183747432066    2.04862804099180   -0.66103914995324
N           1.72165582211201    0.04260685696882    1.08266892604498
H           1.86260474400820    0.85730755946461    0.38691101768270
H           1.30744888611347   -0.74183344642279    0.51553448849515
H           2.59824700573600   -0.25065562107288    1.49926307155087
H           1.04215054161334    0.36082406194613    1.81855387859077
