    26
        -50.46892541  Gyration_radius:  2.49159927593 Dipole_moment: 2.538
 S           1.72218786530651   -1.11214985207651    0.33723882395480
O           1.73381111083385    0.23303834846066    0.92096145960282
O           0.73159313132620   -1.95968954140826    0.97336829471317
O           1.63785954927961   -1.06034539568889   -1.10094302669751
O           3.12306059417040   -1.76082486367344    0.69152510654347
H           2.94837872032297   -2.15280417751131    1.54080434177264
O          -1.85805371085340    1.11452815475896    1.58826709747092
H          -1.28933766181691    0.74031538060250    2.29879550728621
O          -0.36180249600496   -1.02154165751933   -2.74967261665118
H           0.41803026210400   -1.06899153950710   -2.14178263494852
H          -0.06122995321165   -1.37365541792655   -3.58883642416743
O           0.05781449119333   -0.15187817879179    2.96983673183258
H          -0.11560169522099   -1.07489798690255    2.75489893985018
H           0.76687132144291    0.09762646542543    2.34730387180604
O          -1.07352439826559    1.52549562367821   -2.36498840971301
H          -2.01545843893605    1.44979931781527   -2.19664704492229
H          -0.77321683724027    0.61814903574141   -2.59885111393131
O          -1.47971706463981   -0.93148962868841   -0.13223432162162
H          -0.73469132758166   -1.39327660743224    0.29532122144308
H          -2.02842113275356    0.35482030538201    1.00169265543841
H          -1.38979608447048   -1.11828042540756   -1.07236999665404
N           0.01994562333625    2.03365695366725    0.03498187196103
H          -0.31318962034099    1.87739961564825   -0.94944098864439
H           0.34356777947313    2.98596983095084    0.16277903208907
H          -0.79574687799751    1.79579152726651    0.70279643942670
H           0.78666687054582    1.35323473313680    0.27519519276078
