    26
        -50.46690429  Gyration_radius:  2.50965778861 Dipole_moment: 2.796
 S          -1.59080656666191    0.51766085639597   -0.83101788712599
O          -0.20646567977088    0.37421748395216   -1.28650931775586
O          -2.43269732346546   -0.55893953771573   -1.28834254462407
O          -1.64854417165167    0.78744282274944    0.58900293549593
O          -2.14996394430814    1.82828595206310   -1.55333650714283
H          -2.59061027906377    1.45983076596715   -2.31167764394355
O           0.23287329252290   -0.32674818833559    2.16574831969595
H          -0.62337293217606    0.02892908827895    1.86836834307213
O          -1.71729148906514   -2.94856383750054   -0.34199333639870
H          -2.06672747373037   -3.59990838551279   -0.95225757516416
H          -2.06582049690398   -2.08322439401508   -0.64306789863965
O          -0.29588687205981    3.08540333342713    0.24980163943988
H          -0.85276575007539    2.32292148195544    0.48539543032746
H          -0.79610460788899    3.56034243916585   -0.41532580537758
O           3.30037951622306   -0.89479356601595    0.16417640351786
H           2.48422438084606   -1.39239055904912   -0.02116808899719
H           3.73658355911163   -1.35727060762084    0.88138336782253
O           0.71187692771937   -1.84236485294693   -0.06202397881302
H          -0.02647417021603   -2.47953119556380   -0.09852063651000
H           0.41604664966986   -1.10970135038281   -0.63485776144523
H           0.39116295697880   -1.10103828091202    1.59168087429448
N           1.59284066637969    1.17301046318152    0.49221153864388
H           2.49385682896319    0.69428843749598    0.32034082346892
H           1.63718429659857    2.18309490034382    0.61116495911348
H           0.93958881606983    0.97428014380484   -0.30987050924071
H           1.12691388593901    0.70476659676636    1.33069486631774
