    26
        -50.46690452  Gyration_radius:  2.5094815944 Dipole_moment: 2.768
 S          -0.15342496129534    1.51877614574524   -1.07743017026698
O           0.71780721861069    2.61523690875267   -0.73721681962879
O           0.56907142935485    0.25160756658799   -1.20611258142850
O          -1.32007478075888    1.37178467404306   -0.23473719137916
O          -0.70324153357885    1.85346715640876   -2.53960722153122
H          -0.03283552412460    2.44229323548215   -2.86952354636690
O          -1.18905384417987   -0.37740963413525    1.81266702015795
H          -1.42827877035496    0.40833896437755    1.28980423374207
O          -2.38845083868258   -0.40081514384311   -1.94940313184898
H          -2.38016012202624    0.05082266750946   -2.79442032346830
H          -2.14193585808132    0.27974047394199   -1.29895084264158
O           1.89043612290816    2.33627640175120    1.64265705191669
H           1.41746022016136    2.51921056370861    0.80376319515112
H           2.67544437777569    2.88609733019188    1.62765632865903
O           1.25816272780067   -3.03261113301324    0.97642301944272
H           1.54878619395170   -2.11463299369911    1.12067361546414
H           1.18899185770442   -3.42923446490225    1.84622539052816
O           1.49188983992185   -0.29123953387051    1.26626574415269
H           1.30364608757098   -0.10215362994244    0.32756588783816
H           1.79055120700957    0.56715296656495    1.62163387613715
H          -0.22282995001245   -0.30660014935934    1.93688496588869
N          -0.79170219702413   -1.84918112180017   -0.32648091117823
H          -1.13973931512358   -1.38181870810908    0.56774330853550
H          -1.56778360931489   -2.12012911840284   -0.92709279567714
H          -0.25464945155514   -1.09024069922102   -0.82160870061525
H          -0.13808651662230   -2.60473873482721   -0.05737940174520
