    26
        -50.46361291  Gyration_radius:  2.4925803765 Dipole_moment: 6.642
 S          -0.80111354658943    2.19270522484659    0.30158807545911
O           0.31884894844503    1.43706798242080    0.83726496935122
O          -0.68048409619748    2.51884069135592   -1.09955877622645
O          -2.07134877691212    1.53534499425155    0.61340690345785
O          -0.81177135703966    3.57712356012819    1.07603943278517
H          -1.27552354720063    4.12782283844029    0.45438532938006
O          -0.52997037568977   -1.76170709732737   -1.38716405804923
H          -0.87416292132057   -2.24303754604829   -2.14037632829650
O           1.70898749574401   -2.12850673257499    0.14851642120637
H           2.25559637054427   -2.84589717352743   -0.17385713723694
H           0.92709653698543   -2.07605930470215   -0.43584123889763
O           0.53006331902027   -0.78640055834271    2.29508248028976
H           1.14573722660846   -1.29800867203960    1.74890607474193
H           0.58555956336873    0.13119485980034    1.95813496711309
O           2.41851957099287    0.52057905180041   -0.59717347693279
H           2.40257671299227   -0.38380026183889   -0.25353151257436
H           1.79369576050188    1.01671640216656   -0.03795671576414
O           0.37519492557600    0.41910453806161   -2.31857776761856
H          -0.20113295730720   -0.86665447440349   -1.76731906442734
H          -0.08932800027482    1.21890756983333   -1.99272773319256
H           1.26282715477214    0.48063391309072   -1.89814477379653
N          -1.70106303789342   -0.98442841768718    0.93712916397052
H          -1.92274167911398    0.06337000722898    0.81304617917690
H          -0.86705004375908   -1.02251418776922    1.60421353980453
H          -2.50518246189632   -1.48475606867038    1.29797403293149
H          -1.39383079435834   -1.35764114849203    0.01654102334528
