    26
        -50.46627159  Gyration_radius:  2.44590050589 Dipole_moment: 6.890
 S          -1.98232878946734   -0.19043100524087    0.06052091024522
O          -2.38151479098236   -1.03770905318308   -1.02601881822144
O          -1.04634911684564   -0.83031563018892    0.99194541655820
O          -1.46906482965982    1.11474504369391   -0.32970524277978
O          -3.29822897604683    0.08850273156378    0.90181211518528
H          -3.90220420081259   -0.49992559892461    0.46296821826643
O           2.51489934844317   -0.13487882726472   -0.03319141803941
H           3.38996774017159    0.04765544459225   -0.37596620142468
O          -0.16064589492642   -1.77334996691596   -2.42690144903116
H          -1.06221729390285   -1.60845939447172   -2.10334381165102
H           0.26709887275586   -2.29113566114235   -1.71907781850708
O          -0.19935815982724    2.95406631931096    1.02503239178112
H           0.23247250188583    3.48665878626927    0.35375562263525
H          -0.83167337660676    2.37728975293073    0.53528400877696
O           0.88942814990430   -2.50888911007073   -0.00575239574363
H           0.12880683630298   -2.07132874075834    0.40916800072224
H           1.61381463355391   -1.87050862985064    0.02906677001140
O           0.76044610340146    0.59818856249322   -1.75719210574933
H           1.86318891325232    0.15907566160454   -0.75193600690080
H           0.50385701481538   -0.25231602948038   -2.19892476046588
H          -0.05712568479511    0.88705818822038   -1.31441754760288
N           0.86433892627574    0.67872358520871    1.88261105638045
H           1.66652121295544    0.40599359601458    1.26599105726486
H           1.08402668769221    0.55516693945964    2.86470186806093
H           0.56661414703200    1.66586848985868    1.66423866857517
H           0.04523003543091    0.05025454627093    1.59533148165092
