    26
        -50.46248931  Gyration_radius:  2.47978773963 Dipole_moment: 4.741
 S          -0.58536852981789    1.57282508130375    1.08376650040863
O          -1.39795553589111    1.30486372622142   -0.09695732941829
O          -0.87213567680091    0.60709765825194    2.14311470444163
O           0.82429691675991    1.65947492594168    0.80849101154467
O          -1.05234004622514    2.98519931029694    1.62380118065106
H          -1.98667802397321    2.85698641268927    1.75210637803901
O           1.67423744500675   -1.09692485316673   -0.94238964019897
H           2.39497020780602   -1.59908390000211   -1.32393946077103
O          -0.56007084756006    1.63027505910079   -2.62073522790601
H          -0.95540482773539    0.86147126652734   -3.03769995666450
H          -0.92104298512177    1.64955652947730   -1.71237710248989
O          -1.11520601824605   -1.20902335708861   -1.00496211425391
H          -1.31466601206818   -0.31334152033086   -0.66656401460574
H          -0.16191466602315   -1.21632344821184   -1.18288492551567
O          -1.22212129479599   -2.85268612374475    1.05174527689657
H          -1.97427751454234   -2.57228082262045    1.57679032820353
H          -1.29759680365343   -2.35979463893114    0.19249427802072
O           1.92867422932754    1.36444903068370   -1.59608287849546
H           1.81901544972252   -0.13375236437676   -1.22985910552504
H           1.14682188354396    1.55839068974215   -2.15239070954042
H           1.67576640897037    1.68057455973895   -0.70756933759017
N           0.82060721264130   -1.28159875907871    1.62173260781597
H           1.51688137495216   -1.47624967445374    2.33267573512254
H           0.11948103809251   -2.06980976731270    1.50763442420893
H           0.22776587031188   -0.43362993849324    1.88975864156427
H           1.26826076532358   -1.11666510215478    0.69030073605518
