    26
        -50.46194833  Gyration_radius:  2.51164141946 Dipole_moment: 4.763
 S          -0.06664920113591   -2.02880026951074    0.62028147727567
O          -0.04587260632167   -1.52137644203538    1.98829973451539
O          -1.37595544391510   -1.87305464567057    0.01207283987351
O           1.01793731753650   -1.49794017064287   -0.17712808649296
O           0.19371931255852   -3.58930359823722    0.71577929833272
H          -0.59756504449117   -3.93908837637498    1.11472362255566
O           1.14868711327013    2.43500294420398   -1.53773984422705
H           0.83201807021324    3.03484120044375   -2.21365304260743
O          -2.09480123351530   -0.22112383905844   -2.05023498562475
H          -1.94866173262389   -0.98104749278574   -1.46324231905820
H          -2.39984840098266    0.48556029543008   -1.47462640859047
O           0.28438282633339    2.31510288538148    0.94817808395113
H          -0.55887229039163    1.82464850666162    0.87289639071428
H           0.58312559166108    2.48725961908765    0.02204615061212
O          -1.81612510597706    0.59338432469169    0.90742640717550
H          -1.65788299679598   -0.31844287976262    0.58900776588362
H          -2.06573344695382    0.49783768876056    1.82850587996828
O           0.59475305770930    0.01984275021493   -2.40651244380133
H          -0.37821069937087   -0.03603301996250   -2.48131139057874
H           1.00197364591348    1.51896664174964   -1.89599692627071
H           0.83113272995652   -0.61721115874334   -1.71292892680508
N           1.74390134833007    0.29768555517564    1.58105691910189
H           1.06324613249146   -0.36861182900372    2.03740246897093
H           1.91721087296437   -0.18963130266759    0.68598110041095
H           1.20344068173932    1.23166824561163    1.36968947753151
H           2.59064952180976    0.43986438705858    2.12002678715065
