    26
        -50.46132390  Gyration_radius:  2.48134638724 Dipole_moment: 7.413
 S          -0.54514073712688   -2.16901071225019    0.13696694717365
O          -1.13071974000001   -0.93585780385660    0.64470076004324
O          -0.75475526805370   -2.39495644158436   -1.26877103354073
O           0.86253250398623   -2.26453548019164    0.52921404699922
O          -1.29481522420793   -3.34961272558988    0.88607331249237
H          -1.34927514130220   -3.99134308072966    0.18619162020952
O           1.49378924134111    1.32469367555083   -1.33549072595212
H           2.07192190495345    1.59739549372304   -2.04859421265945
O          -2.30800302131290    1.02318890914291   -0.91355362556056
H          -2.11944153707210    0.28986229719873   -0.30802937160976
H          -1.83513909060851    1.79191117672213   -0.54359816059900
O          -0.44077739663653    2.70274582776379    0.23228659914970
H           0.26476449952168    2.40500632652529   -0.35858314187752
H          -0.34735083564777    2.18833090702841    1.04600334759540
O          -0.11699612908704    0.78492338903183    2.29580295513380
H          -0.56508914195611    0.12242703147187    1.70583100574356
H          -0.57892602984959    0.75301077845785    3.13429969933681
O          -0.37880792077749   -0.01009626143835   -2.42465929302405
H          -0.46637117839071   -0.93531574500413   -2.12558573591197
H          -1.18899852253614    0.43339796555632   -2.07535407601868
H           0.75377161414841    0.77618455821953   -1.78007158291360
N           2.02655471683121   -0.01597763007535    0.88592722384445
H           2.99264479542252   -0.08438916642826    1.18551077412303
H           1.93081567673460    0.52589465718639   -0.01428895470298
H           1.59472814113242   -0.99772393905670    0.72230728554024
H           1.42908382048691    0.42984599262663    1.60546433698437
