    26
        -50.46690455  Gyration_radius:  2.50956054422 Dipole_moment: 2.770
 S          -0.00556638093480   -1.75761645779606    0.63300599261551
O          -0.65738740278370   -0.52038667383962    1.06731693415704
O          -0.91815372491920   -2.65571104180861   -0.02854596113535
O           1.21803046080683   -1.47895550936854   -0.08668492566134
O           0.43112689308090   -2.50975998067670    1.97306887114408
H          -0.29224683517260   -3.11422540961185    2.10162614120888
O           1.32065937731186    0.75636506081074   -1.58998160914270
H           1.47881461501700   -0.15582850355185   -1.28836969998698
O          -1.92448045352460   -1.66637380332836   -2.29254271819029
H          -1.51545015712097   -2.10085692929984   -1.51483668896639
H          -2.74129598016106   -2.13950652410412   -2.45909970311360
O          -1.00933457691277    3.26824476478744   -0.17582605510097
H          -0.86432646971864    3.87679021437723   -0.90191859889388
H          -1.34482923780609    2.44616903841230   -0.57533317616115
O           2.28332454214586   -0.31238239792604    2.08785921332535
H           2.19468477430158   -0.97069319390139    2.77837587897011
H           2.03729244418686   -0.77466926069741    1.26765437476897
O          -1.38953859962339    0.72854702803988   -1.20494277914595
H           0.36165261923167    0.79373399900937   -1.77128162857643
H          -1.71767452626304    0.02081503281328   -1.79122697770209
H          -1.27204100426996    0.28291836619958   -0.34473946803415
N           0.88014606232846    1.63044970978971    0.84766990388651
H           0.29182973349282    2.47742658963605    0.76441940283575
H           1.25427491149385    1.39360741036803   -0.12350192269184
H           1.63232546830609    1.67223128063091    1.53248437680664
H           0.26816346761458    0.80966720102755    1.09535085278708
