    26
        -50.46147058  Gyration_radius:  2.59159900861 Dipole_moment: 4.218
 S          -0.52975148878190   -0.46606392666081   -0.24315703464212
O          -0.73655328687945   -0.64125873946244   -1.69118880737318
O          -1.12098308624829    0.96258463702703    0.04615510396355
O          -1.23673272398116   -1.43430430323462    0.55997551390964
O           0.89445724843016   -0.38406304966457    0.04892240483745
O           0.66421635611635   -1.59721539839809    2.44328439668571
H          -0.11909469685944   -1.85869727391077    1.93111937494643
H           1.18927451808846   -1.12558921956249    1.78027545849555
O           1.52788863113094   -1.28199676159736   -3.01583887730240
H           0.65662996503211   -1.16754139790629   -2.58636486283619
H           1.85946758990128   -2.13007064633214   -2.71701266214540
O          -0.50839269555855    0.26414298897013    3.94730615758387
H           0.02609143127200   -0.40965427006870    3.46167293180930
H          -0.66858837109359   -0.09967089591466    4.81931813595826
O           2.30791521708948    0.94002030628336   -1.72129358181497
H           1.95615622377174    0.51266691269441   -0.90486514673426
H           2.34997300714419    0.19184471046437   -2.35156993761705
H           1.02352364226694    1.57660216870291   -2.13763191026496
O          -2.45934178436949    0.38141768484419    2.12256047704856
H          -1.81724686892126    0.45912115863782    2.86666473833976
H          -1.68526226756053    0.87104010067066    0.88229678551002
H          -2.37976612060869   -0.53014849328482    1.80237689171760
N          -0.04822861030081    1.74965432695318   -2.32440401492438
H          -0.44757597215600    2.31625079785518   -1.57759019910108
H          -0.46028184212325    0.76236222800994   -2.19849291378340
H          -0.23779402480325    2.13856634488762   -3.24251843227347
