    26
        -50.46381635  Gyration_radius:  2.50748853167 Dipole_moment: 5.915
 S          -0.57540153797175    0.76969874049401   -1.69920530985218
O          -1.78674713560192   -0.02180931006469   -1.88766210678285
O          -0.62913324850162    1.53224062822458   -0.46027827069874
O           0.62332867975356   -0.03342942449174   -1.81537996378166
O          -0.53561734757043    1.81870079220490   -2.87579538980823
H          -1.35910172713891    2.28304100203958   -2.76670478890152
O           1.07336654281776   -2.63852892617320   -1.31943499748623
H           1.03214245877622   -1.78272221734084   -1.78644493303549
O           1.59910448851709    2.18999624524956    1.11495761119582
H           0.86459911688095    2.17404231573581    0.48236424622129
H           1.18124115476315    2.18197483490738    1.99274811863118
O          -0.54115386351205   -0.34418942500890    1.39191814234593
H           0.43600282457597   -0.49199883970823    1.26508859927109
H          -0.71772373259635    0.40796183741585    0.78244338715690
O          -0.15236277794192    1.72067556464219    3.23818547419534
H          -0.92316743788527    2.28082129810868    3.13440202007502
H          -0.36543353111626    0.87500363965440    2.80966743830353
O           1.92972721482171   -0.40345187584870    0.52220219625686
H           1.72727221320767   -2.50611289365276   -0.62438697582144
H           1.61813611199519   -0.23257372680708   -0.38581277122483
H           2.13629065501332    0.49505319819867    0.85691357388185
N          -1.34886560348635   -2.09078959450686   -0.38747938319592
H          -1.64474392332829   -1.34396660919121   -1.08749547242496
H          -0.44290062549591   -2.50642554327810   -0.74105544380462
H          -1.12980778449043   -1.54212087269575    0.49585486145347
H          -2.06905120450167   -2.79109083809086   -0.24960988213138
