    26
        -50.46361282  Gyration_radius:  2.49255850994 Dipole_moment: 6.650
 S           0.00370000801242   -2.31432468503688    0.42758905420372
O           0.23590020248264   -2.65453275040260   -0.95595575374124
O           1.24698714663970   -2.03787329130293    1.14931046112218
O          -0.96005740943119   -1.24485712873134    0.62589883131596
O          -0.62512828415257   -3.60641044615796    1.09960872220529
H          -0.16167643776488   -4.29506655819507    0.63506793312685
O           1.41521000913859    1.47061984851101   -1.06798491445129
H           2.09879540217349    1.79822028473823   -1.65359516311873
O          -2.15760218511047    0.17103947910258   -1.34112919735498
H          -1.98961619100537    1.04692649755685   -0.96581891712367
H          -1.90678093924233   -0.45840895965042   -0.64107603479563
O          -0.98481449449535    2.53462490533030   -0.28528807934487
H          -1.17497587266355    3.36266678471328   -0.72752970777037
H          -0.10987822671184    2.23320287180527   -0.60036896647439
O          -0.96608064932269    1.00833784598840    2.05330166142019
H          -1.20786546096454    1.65056012959405    1.36904029442369
H          -1.17547979038169    0.13145499819963    1.67153375639374
O           0.25743593738816   -0.39698039472261   -2.33871194477463
H          -0.69508725416920   -0.18189166386448   -2.21713396582021
H           0.97806477840199    0.69205032657554   -1.57436778758176
H           0.34825525909124   -1.28106831575578   -1.92423159028674
N           1.53383862559366    0.49382103535295    1.46401071310536
H           1.64777389858169    0.89795738791966    0.51281476869592
H           1.47254163814347   -0.57797210209345    1.36407712780018
H           2.29441757379644    0.75753044457737    2.07975178548089
H           0.58212271594441    0.80037345597818    1.84118690344051
