    26
        -50.46361278  Gyration_radius:  2.49257616088 Dipole_moment: 6.650
 S          -2.14693461361001   -0.76094636078113   -0.59177540440782
O          -1.43092058667182   -1.88523434151082   -1.19703125607628
O          -2.52164568061323   -1.02185183763698    0.77768718505558
O          -1.41940487505711    0.48206380848777   -0.78522641527845
O          -3.50411288660654   -0.60912490208068   -1.39891920901550
H          -4.05182117021742   -1.24580385991072   -0.95227563387484
O           1.73412418189787   -0.81903402322066    1.27531324346892
H           2.20401449052807   -1.33304687084281    1.93295847338822
O           0.84088030365128    1.13367108729202   -2.04281227495028
H           1.30903383669399    1.60065738113133   -1.33437913951176
H          -0.08886244383935    1.07212993228290   -1.74232202656904
O          -0.63759973923698    2.16358110435575    1.18180966743440
H           0.27756489219697    2.26510600996544    0.88443264543593
H          -1.08931557456404    1.69095061557821    0.45944974408843
O           2.06135703155723    1.75319648723848    0.39117237437366
H           2.74428376791693    2.21810038199215    0.87577202835397
H           2.02084787508349    0.84446909657602    0.74926285139471
O          -0.51006293657478   -0.25380309771136    2.31773802884490
H           0.81492896228053   -0.62749081611623    1.69026958434660
H          -0.59391972119646    0.71032850554145    2.13944188340383
H          -1.27872024930386   -0.64206522768071    1.84852585426580
N           1.08137810988231   -1.36782091234736   -1.30385908510786
H           1.41083195551327   -1.30008062916732   -0.32001248328275
H           1.62564956531297   -2.03455239875893   -1.83902597979904
H           0.03973852879558   -1.64557212346587   -1.28699541296454
H           1.10868696615278   -0.38782700921046   -1.72919923303673
