    26
        -50.46379204  Gyration_radius:  2.52804249423 Dipole_moment: 3.669
 S           0.73396778302259   -0.11465708369591    0.14080158455025
O          -0.36040264547741   -0.66997825554974   -0.70983844190421
O           1.75967271157565    0.46566429658272   -0.68846850530359
O           0.06984124613164    1.08329383119687    0.89382013531080
O           1.18806332749263   -1.08909381988824    1.09979544879584
O          -1.43834578530769   -2.16582448101045    1.23363149730556
H          -0.66772257975218   -2.60930126918759    1.59976407517823
H          -1.11301065865485   -1.72520910492346    0.42762556558447
O           0.57449073611086   -0.87007272039921   -3.25117067405349
H           1.39250576592956   -1.36994686036343   -3.24064061190394
H           0.21886481029535   -0.92498599508771   -2.34387615546773
O           0.94170323785144   -0.80768624502710    3.73275810131129
H           1.12995137721610   -0.99743343531298    2.78968001282568
H           1.68059935822086   -0.28825806128107    4.05222863857205
O           1.03802755913493    1.74527984845587   -2.85556785482308
H           1.53715925372342    1.44097260024558   -2.06158544707920
H           0.91636612922395    0.91175582325880   -3.35583246610745
H          -0.27050308555809    1.85322839752847   -2.15887871104166
O          -1.37345959466731    0.06484452054930    2.68800256264515
H          -0.67936332912241   -0.18997388928439    3.32935380307504
H          -0.53152085096988    0.70958925608995    1.64626686918821
H          -1.62247016952030   -0.78034575990936    2.24607950761541
N          -1.12161334581975    1.66340092541527   -1.48154424486942
H          -0.98532357538575    0.63496796145430   -1.21103855983160
H          -2.02613684401364    1.84199484119188   -1.90599539060272
H          -0.99134083167768    2.18777468894659   -0.61537074897057
