    26
        -50.46147056  Gyration_radius:  2.59193762644 Dipole_moment: 4.222
 S          -0.49436762786288    0.51321402706864   -0.22081689483595
O          -0.86786017349503    1.69718245553602    0.51470960050467
O           0.93110342715871    0.21830018122748   -0.18037126823821
O          -1.21877738331189   -0.72974796276322    0.41506099030159
O          -0.96766695244243    0.51519961792649   -1.61592796022093
O           0.28732471136883    0.39906142005959    3.96066646306400
H           0.36582699422109    0.90846146217089    4.76857539181848
H           0.80370216125604    0.88830907112158    3.27544266161219
O           1.38530060031703    1.78291987252517    1.96523595114591
H           1.68488386670080    1.13437457452918    1.31161192765779
H           0.56052453872777    2.10556991643147    1.56551534142441
O           1.04253000516181    0.54437415143205   -3.41877748260526
H           0.27198921965956    0.65028827900958   -2.82568436946628
H           1.55009918532567    1.35323298402263   -3.33800778281940
O          -1.99402384243550    0.37216398268480    2.56558025371552
H          -1.23095221698568    0.28776349934932    3.18403145766551
H          -1.84792614692410    1.19908006837535    2.08102952090291
H          -1.57656118495759   -0.42065949224821    1.31074215390769
O           1.73620169521454   -1.57454278397989   -1.91884328938125
H           1.75678404364451   -0.94290439964150   -2.66678467840179
H           1.62827064512877   -0.97978605550453   -1.13941924633368
H           0.31392324767816   -2.02295346365870   -1.97889392397752
N          -0.78690947012527   -2.02570677480898   -1.93629173845417
H          -1.21738574966579   -2.49971039703313   -2.72368957672313
H          -1.01322562148144   -0.97281773100696   -1.91155508544752
H          -1.10280797187508   -2.40066651281579   -1.04313842680795
