    26
        -50.46753426  Gyration_radius:  2.51770830567 Dipole_moment: 2.712
 S          -0.19255865620362   -0.58074252969170    1.74871536821634
O          -1.21170094615324    0.12500783689256    2.48847655761029
O          -0.68854319724572   -1.03870062000435    0.44944472949427
O           1.05958049072565    0.13213689578484    1.62275528119650
O           0.12724106700851   -1.89949167098594    2.58300909759737
H          -0.71055963514229   -2.07906373107913    2.99674488808135
O           1.52272291834692    1.42311808466134   -0.69595581625337
H           1.55452605356932    1.13320882068241    0.23400691969300
O          -0.72137895191585    0.08120834702914   -3.31160657216742
H          -0.02238417954686   -0.39885939506295   -2.83976494290941
H          -0.79586737930878   -0.32813203058051   -4.17390641917694
O           2.38588291881984   -2.01563530537088    0.70193131074241
H           2.11490164938802   -2.72094263479552    1.29147508851311
H           2.03175761214163   -1.20019677683978    1.09820997172423
O          -2.23170740682241    2.27541596421867    1.29713136443445
H          -1.96141118013189    3.02134113361756    1.83490255361679
H          -1.94476771106911    1.47466723904286    1.78987741703995
O           1.10002819050867   -1.15537894836362   -1.56163555858403
H           0.39878955980299   -1.23075202664496   -0.88409661154966
H           1.65380368449023    0.60168452681583   -1.20577943010272
H           1.84701865030244   -1.61050536604079   -1.14543626579385
N          -1.09021231883927    1.22287555884369   -0.88071865089967
H          -1.39489339112055    1.11942196319919   -1.85297188426669
H          -1.09893985588889    0.28196773268633   -0.41988221796750
H          -0.06519331083323    1.51496264782323   -0.87384206471604
H          -1.66613469497822    1.85138430418901   -0.29108410334196
