    26
        -50.46911895  Gyration_radius:  2.45472028498 Dipole_moment: 4.002
 S          -1.58423994871314   -0.93298348202707   -1.27870169276066
O          -2.84508601383622   -0.54584785193465   -0.71584577875517
O          -0.76267444736064    0.18268209071085   -1.72786819253824
O          -0.79795013758420   -1.81763104005743   -0.41079413570301
O          -1.91646848546617   -1.79123621329795   -2.57720961093754
H          -2.85276702202452   -1.93955984933757   -2.48814169371293
O           1.46311941049748   -0.06025645001451    2.26560826297038
H           1.69413112017756   -0.20477074394281    3.18338028641400
O           1.81100727279524    0.93018320250784   -1.62098308111256
H           1.72487652507081    1.58769716985325   -0.89080267094377
H           0.89912113452165    0.79268098810246   -1.93539712916110
O           1.23724155033762    2.24954797480045    0.63213769090975
H           1.41063962019121    1.57801624347729    1.30795739695850
H           0.27563552608247    2.32741495530767    0.57421843664829
O          -1.52687048895576    1.74921650034745    0.24874859601498
H          -1.25986340730181    1.24452696143773   -0.54965099315291
H          -2.48450906050122    1.79636156653833    0.19649211196271
O          -1.07198605841090   -0.39314014141080    1.86731674003785
H          -1.13870825948691   -1.05096015673606    1.15380840977490
H           0.46905039691347   -0.19096337228517    2.19862901882921
H          -1.35526871310801    0.44616511480829    1.45533542283447
N           1.74569031472980   -1.21488212412973   -0.17432723347701
H           0.74276166343417   -1.53089435751989   -0.31832939990568
H           1.83258259712198   -0.88582330668977    0.80701116908700
H           2.39368800183999   -1.96777514739501   -0.37486853838847
H           1.89684691901546   -0.35776854111849   -0.82772338188639
