    26
        -50.46911893  Gyration_radius:  2.45477080408 Dipole_moment: 4.002
 S           1.91434139480821    0.79465151889107    0.84837054934211
O           0.63500973278188    0.92107641428849    1.53311666465832
O           2.68735026302287   -0.34388056427458    1.25165614888842
O           1.71822532058556    0.88988509079356   -0.60298090318875
O           2.76296809805986    2.07931804712115    1.25140204465998
H           3.60702271013763    1.70153929813274    1.47794154858048
O          -1.31415201974491   -1.10724522247859   -2.07997147427094
H          -1.48187016579042   -1.64419043614538   -2.85464377767341
O          -1.90441663101243    1.52064919629404    0.91201558734795
H          -1.05884413395684    1.45683856770429    1.39187009046424
H          -2.25825579298706    0.59993746471502    0.91010299726153
O           0.23389913461524   -1.68264184005642    1.60252366625959
H           0.35662563582269   -0.71148548769590    1.67516929261181
H           0.99446047388367   -2.05723820250301    2.05337278673090
O          -2.33908917093097   -1.09437850421914    0.56668778917015
H          -2.14257617713455   -1.20806494537291   -0.37469289115381
H          -1.59306590152713   -1.48195472527741    1.04345883084659
O           0.97642145344233   -1.67359050149713   -1.01750094687494
H           0.75635111009204   -1.89021606559185   -0.09063845200158
H          -0.42180918788206   -1.39755445737607   -1.72060943148630
H           1.45438910925422   -0.82799907291948   -0.96446670528623
N          -0.72257440884898    1.44996896095094   -1.38936357475534
H          -1.29220003575290    1.58711304779981   -0.47223174026043
H          -0.80892778703710    2.24200803263991   -2.01561174165661
H           0.28796014198584    1.30683393703191   -1.09818066279376
H          -1.04724316587965    0.57062042903081   -1.83679567540276
