    26
        -50.45621025  Gyration_radius:  2.57222915361 Dipole_moment: 4.226
 S          -1.96500129798948   -1.19576164742619   -0.47278181296053
O          -2.30663611481720    0.13342759986805   -0.97425031140584
O          -1.19934393374182   -1.96855197730776   -1.41964700550013
O          -1.35295043736585   -1.10595667354016    0.84750734514551
O          -3.32973171231664   -1.97212017223424   -0.27149452144759
H          -3.40125763169910   -2.40863812033823   -1.11326361218816
O           1.86145802826426    0.82658762742639   -1.45737939038416
H           2.21528394550578    0.92042353092917   -2.34234704399315
O           1.07273689362742   -2.05999711606557    1.51738641610408
H           1.35065710219232   -1.37945562970400    2.13354980990007
H           0.13424978654201   -1.87877210781041    1.32125091745960
O           1.98334004608550    2.41732444068458    0.93682112658413
H           2.28440501184005    1.84676665546060    0.21980369096746
H           1.55648728072086    1.84424411104895    1.58067231399300
O          -0.32724356006309    0.99691161868102    2.00726954433528
H          -0.72294490971164    0.17894014070219    1.61760573602277
H          -0.90970263444156    1.25853779521794    2.72162126402674
O           1.44156196443249   -1.68514933004197   -1.14968057978840
H           1.73534247905087   -0.16706954791983   -1.32024363773253
H           1.52587128615003   -1.94138747097205   -0.21178696476724
H           0.50347243320583   -1.85935285459325   -1.36635043323808
N          -0.43517864829712    1.86224975139319   -0.57263837903806
H          -0.30069065017088    1.81472176833323    0.45898043886014
H          -1.23641594116574    1.19112392459777   -0.81115057040996
H          -0.63524751458235    2.81323768089316   -0.86373719690767
H           0.45747871873367    1.51771600272607   -1.01571713363966
