    26
        -50.46911520  Gyration_radius:  2.45517662663 Dipole_moment: 3.904
 S          -0.16236275286869   -2.17136722269574    0.52927450066889
O          -1.00544763832258   -1.14674379803263    1.13152947262771
O          -0.75426860748042   -2.82613083272347   -0.60108052014458
O           1.17515549925025   -1.62891324371983    0.26676533371397
O           0.04104726250959   -3.29276293323734    1.64034807695525
H          -0.19792261367801   -4.08666660189633    1.17234205363645
O           1.32615240583211    1.96092152808467   -1.29766436444377
H           1.84122741686557    2.40509561117248   -1.97143166429457
O          -1.97513703689212   -0.35545702693060   -1.18668923036048
H          -1.70874153464532   -0.65019000973375   -0.28897949378821
H          -2.36878591792597   -1.13276050073141   -1.59013889496040
O          -1.32263284757188    2.26520275143669   -0.32516309176129
H          -1.74482416245697    1.49555643832177   -0.72952504729605
H          -0.44746741009270    2.33537316585858   -0.73374545095974
O          -0.72572773348781    1.33507474768056    2.10869159690587
H          -1.08566271901988    1.82350668682995    1.33093405457538
H          -1.02756165451045    0.41719844849749    1.98252263723948
O           0.60038377179758   -0.40035368430150   -2.06903112417470
H           1.07175080066020    1.06628962229919   -1.67778219639620
H           0.91359944703433   -1.00746901386601   -1.37659928187206
H          -0.37109188303480   -0.39019459874643   -1.96589681387108
N           1.61554685256099    0.80654268044094    1.14171037519377
H           1.68769608951107    1.37248902591893    0.27378903468646
H           0.69816810552085    1.09417476909556    1.65201516101991
H           1.49424605081831   -0.20749408657781    0.85334531332595
H           2.43266081962652    0.91907807755980    1.73045955376762
