    26
        -50.45621031  Gyration_radius:  2.57215037326 Dipole_moment: 4.222
 S           1.41815553546764    1.72018837886238    0.73829297385052
O           2.35203900893042    0.60207260113335    0.62629345101716
O           1.18283393008678    2.37808356832404   -0.52339797930666
O           0.19974902708802    1.30639331149653    1.42396323499574
O           2.10466669782104    2.79609548051190    1.67467872226247
H           2.52981612198055    3.34151776953843    1.02191735485339
O          -0.29933953037051   -1.09501482342345   -2.23258330120572
H          -0.01318788782692   -1.16480437054717   -3.14385711238854
O          -0.66032375385063   -1.12159004145169    1.85289881931219
H          -0.36463213418478   -0.18579837036814    1.73281941840924
H          -0.57081179249513   -1.30966891152668    2.78813542373015
O          -2.29588125205496    1.49475981930476    0.43478540769097
H          -1.42139334082601    1.59365931818244    0.85617235783181
H          -2.67555360108100    0.69210286704127    0.79752021069775
O          -1.35871838415096   -2.95183374757389   -0.30676751697917
H          -1.58297598761140   -2.37295992051876    0.42794050570309
H          -1.32251213574411   -2.39456848455445   -1.09314506063040
O          -0.88414236332693    1.37819286063923   -1.88546576416912
H          -0.09931506818083    1.81900710418209   -1.50203901583661
H          -0.56991058626919   -0.12893868125064   -2.10710938529747
H          -1.57719795977181    1.48180973992505   -1.20627594610082
N           1.19903852115476   -1.59438465384910   -0.07981261281239
H           0.69200773137233   -1.44330123100576   -0.99198637324328
H           1.79369417978524   -2.41457603698095   -0.13261093364944
H           1.75204103721096   -0.71167086183100    0.17372520271752
H           0.47185396684861   -1.71477268425808    0.65590791854487
