    26
        -50.46361286  Gyration_radius:  2.49258980223 Dipole_moment: 6.644
 S          -0.62455522763309   -2.08187730318912   -0.90282037547779
O          -0.28699566911474   -1.69003374099210   -2.25063411070183
O           0.53161619186508   -2.59428624846391   -0.16550926137314
O          -1.31422564997518   -1.05628213287444   -0.13821642676516
O          -1.64130417662097   -3.29203445719715   -1.03767014577130
H          -1.30413216683908   -3.72508750994241   -1.81461895955215
O           1.86831346748783    1.34067697095794   -0.11590054804947
H           2.68685167106454    1.71970622035928   -0.43811814513901
O          -0.28241929671254    2.45988800290603    1.15923229875107
H          -0.19649230331924    3.40969480728031    1.24809354680451
H           0.52692539879987    2.13682707688456    0.71619968933425
O          -1.83781615747909    1.45298355510560   -0.99635408030730
H          -1.51573749988910    1.91085430249892   -0.20717787781105
H          -1.84978298081314    0.50881947862240   -0.75620997766728
O          -0.96805709178105   -0.00038004422371    2.28669944750962
H          -0.94511279013052    0.94314298960292    2.06654543777074
H          -1.33067960817157   -0.44301839733595    1.49231168480252
O           0.47997583492953    0.84298148759304   -2.18158800196808
H          -0.39822411514225    1.21976714431012   -1.94659648711849
H           1.32968674492050    1.10805523671258   -0.95835555589776
H           0.29250228354140   -0.10999802372925   -2.31703053042777
N           1.38570330341501   -0.81044464476728    1.47141426417178
H           1.72804757706083   -0.01789579115182    0.89197705124128
H           0.49519381886414   -0.49394176798775    1.97037936003633
H           1.07734704294094   -1.60008917823759    0.80518877355334
H           2.09337138873050   -1.13802801274122    2.11875893005395
