    26
        -50.46147057  Gyration_radius:  2.59173336543 Dipole_moment: 4.221
 S           0.21217718983996    0.04372658962381    0.71445616673595
O           0.34835551621763   -0.76640329974378   -0.48795261090651
O          -0.40011222934011   -0.65067377376433    1.82127547469160
O           1.50584919936904    0.66222086724420    1.05250715410224
O          -0.69256816952528    1.26827335528980    0.31970937080118
O          -3.77549794074261   -1.28801840468648    0.06266108473436
H          -2.95882912208810   -1.84346707777571    0.06071565822892
H          -4.48431796791373   -1.85617608957206    0.36797183445704
O           3.57895393521347   -0.40075042476200   -0.31308649721012
H           2.89638378608887   -0.05292967191641    0.29509371747955
H           3.68877894372116   -1.32493276675290   -0.08452336018344
O          -1.46438905973826   -2.59237770974650    0.30891024645373
H          -0.86863878664258   -2.22536022724021   -0.36050457181475
H          -1.15513844579675   -2.15120894004692    1.11748116678974
O           1.92208742221681    0.24590747010117   -2.32753542919161
H           2.74492908565741   -0.04489400037198   -1.88345152309006
H           1.22574389139982   -0.24340287261882   -1.82898971601586
H           1.70301212707708    1.56357464187504   -1.66130159369339
O          -2.76245935999466    0.62093171549828    1.63769296486899
H          -1.58067712836485    1.12523228307008    0.78500033211426
H          -3.26280181763058    0.01459474742021    1.04276748361237
H          -2.15148565931099    0.05517349123360    2.13417934965970
N           1.49425130312986    2.33061371033856   -0.89869904531662
H           2.13433565491859    3.11733518823335   -0.93599008126204
H           1.58154366688483    1.76776466523057    0.01573811191311
H           0.52051395532977    2.62524655391190   -0.95412570798376
