    26
        -50.47150054  Gyration_radius:  2.42625315766 Dipole_moment: 3.447
 S           0.91912126178988   -1.45517508270701    0.76189686430266
O           0.83868690848608   -1.36274267078178   -0.68831415453188
O           2.18161901447847   -0.93034733936421    1.25875598391108
O          -0.23166553641947   -0.87128730497309    1.42147673696261
O           0.89205383951050   -2.99220575197326    1.12328485860384
H           1.69624285798406   -3.30949113808541    0.72644327945998
O          -1.28537961107774    1.61843511668851   -1.40937836545997
H          -1.92912399770114    2.07336033440923   -1.95301961394462
O           1.35591614740960    1.01028575445396   -1.86559275815339
H           1.26174843648414    0.06464234439264   -1.63873762756404
H           0.44045332958482    1.34623509663624   -1.89083718422005
O          -0.54991201379236    1.78317251516841    1.22191001895989
H          -0.93412838390467    1.84881446757337    0.32722433253308
H          -0.57359189806185    0.83064172217405    1.43871539881832
O          -2.67009333611946   -1.77406090697428    0.84021238220569
H          -3.27203605568898   -1.33106017514157    1.44038282244620
H          -1.76772272357509   -1.55334113830501    1.14602174890498
O          -1.67496025862825   -0.93904417289377   -1.55436106892318
H          -2.22073448216697   -1.28879743682086   -0.82658270693174
H          -1.50273677544822    0.64003712470165   -1.47858248847948
H          -0.76534388096399   -1.21976135638859   -1.33957711036493
N           1.98728202441072    1.59098342494514    0.60102033193773
H           1.88941276117323    1.49796603892672   -0.45889847959930
H           2.70069387429593    2.25657917536034    0.87557321546283
H           1.01817108642434    1.84896081640957    0.96429101383910
H           2.19602740151731    0.61720055257006    0.95667256982442
