    26
        -50.46862861  Gyration_radius:  2.4749153918 Dipole_moment: 4.025
 S          -0.32332455536683   -2.22262598365898    0.03078731184441
O          -1.37476467987770   -2.30156286875777   -0.96197576850018
O           0.88283099484488   -1.57146167642480   -0.50840516682001
O          -0.70824910744917   -1.63931233966167    1.28680987001071
O           0.10334240269037   -3.72537844904118    0.31705690424364
H          -0.07352724182506   -4.12925512396981   -0.52605447698596
O           1.28242352584627    2.27726449159516   -0.78380929831888
H           1.72792918025742    2.93694404444432   -1.31553086840127
O          -2.18040439189172    0.16134522966483   -1.08804554722411
H          -1.92520298410031   -0.79005748314879   -1.00219616403872
H          -3.13295556479889    0.17176033538057   -1.19693297507766
O          -0.15193455404278    0.57012241556174    2.66796853644297
H          -0.51356819780154   -0.29938938206474    2.41323640899345
H          -0.65404667475217    1.21470037847109    2.11644209718312
O          -1.15590114127574    2.03586111957629    0.68199035294190
H          -0.37194930902173    2.33244484412980    0.20028918023822
H          -1.58386877244614    1.37674238841574    0.10900939311122
O           0.30614669342181    0.37717283716229   -2.26152730475752
H           0.57519430818550   -0.42154002533418   -1.76569483015942
H          -0.65273344161095    0.43034700541608   -2.12910870971586
H           0.92378150564576    1.59157589276638   -1.42226879873138
N           1.83306092618771    0.32915938135934    1.03379026968389
H           1.08682077379682    0.45966889610914    1.82041638831463
H           1.50971975828890   -0.49674311085787    0.45315316873278
H           1.81159245494914    1.16606083517244    0.42039718124892
H           2.75958809214617    0.16615635769398    1.41020286574090
