    26
        -50.46862862  Gyration_radius:  2.47493888309 Dipole_moment: 4.025
 S          -2.07823067215714   -0.77092063457355    0.36376871185405
O          -0.86157876344041   -1.59411422775781    0.47181851476124
O          -2.35650111694850   -0.06735064017552    1.59862944802458
O          -2.04418344429502    0.04995546798676   -0.81564753119067
O          -3.27044346045243   -1.80523442199699    0.18701739907372
H          -3.49147335768277   -1.98610494647012    1.09455947372101
O           2.72236588378718   -0.15802051944365    0.09591238413586
H           3.61724358584786   -0.31940083983416    0.39514678329477
O           1.10507810144209    2.08008335649428   -0.63035713206063
H           0.48838810579541    2.04015714409307    0.12064092241504
H           1.81794089802527    1.46281202146969   -0.41730774302476
O          -0.53154641266942    1.77664672241133    1.58901613389718
H          -0.90547025124946    2.58602912007424    1.94171807358883
H          -1.26963938572375    1.11892786702717    1.57206863978621
O          -0.22231084998528    0.85108292632814   -2.58699786232123
H           0.25660269494249    1.49807854673064   -2.01794223845321
H          -1.07120980302695    0.70760105141386   -2.12816113846858
O           1.01254354950384   -0.46617877445673    2.02688453654680
H           0.31290926588734   -0.99430070281897    1.59353424647309
H           2.12831454155584   -0.28140804793162    0.89486215452380
H           0.61398070837050    0.40963914910351    2.14480717671776
N           0.82185155691616   -1.25294718234537   -1.51393056085381
H           1.68984701643360   -0.94011802945202   -1.03874551778081
H           0.42188313877410   -0.41399182389149   -2.08742447742851
H           0.98664518557439   -2.06731586735676   -2.09389465773924
H           0.10699326477439   -1.46360671462772   -0.75997572949342
