    26
        -50.46272393  Gyration_radius:  2.48203057164 Dipole_moment: 6.102
 S           1.00456107160909   -0.32389532493600   -2.08822844475339
O           0.69150861088733    1.06744932943830   -1.87353564691647
O           2.35173042993161   -0.71975335463985   -1.76647236407383
O          -0.01169346126087   -1.17918171481728   -1.44447667343703
O           0.84314445751963   -0.60239900060213   -3.64923054731416
H           1.59188013508901   -1.16798361471784   -3.80680348831753
O           0.45802065512963    1.38241760399282    1.86222994984397
H           0.95828143448346    1.82926935866502    2.54645295205221
O          -1.48109154688611   -0.43543489954979    2.18634399113073
H          -0.76806146753099    0.24479706896302    2.14725956116233
H          -1.78073854154771   -0.47490514666267    3.09500136922092
O           0.32883122797547   -2.33163083615350    0.99437595635213
H          -0.38432229190383   -1.87430349087065    1.45891022755493
H           0.21336088163368   -2.11819623196552    0.05179102998449
O          -0.85042203422669    2.47316218417552   -0.28356723462855
H          -0.36711266294786    2.31152883633419    0.54705904486991
H          -0.21863455708766    2.20141761711243   -0.98187655087295
O           2.11202784308875   -0.30535665499729    0.85093128035968
H           1.12256566215718    0.78002610341703    1.39915844919231
H           1.66319640362059   -1.15426831827957    1.04620646977491
H           2.32833969040718   -0.35752679231076   -0.09929880987613
N          -1.99587990312728    0.14419062060462   -0.44178472389007
H          -1.65582620522470    1.16989939814066   -0.40731566610580
H          -2.86653117100764    0.04470637525893   -0.95059037626427
H          -1.20886862051131   -0.40939868163952   -0.92085475637263
H          -2.07826606024787   -0.19463043397909    0.52831498135182
