    26
        -50.46975262  Gyration_radius:  2.44565388889 Dipole_moment: 3.803
 S           1.32324609698806    1.05665582514597    0.86940403627615
O          -0.07967148090762    1.28820695108384    1.22603826269804
O           2.01066298496430    0.21542974514171    1.81792712076240
O           1.43730563108444    0.60675585279518   -0.50396960695727
O           2.01915551005970    2.47960253331984    0.96203412652359
H           2.77080765696653    2.26700349402384    1.50378584946762
O          -1.55337333292106   -1.39447741890998   -1.55199441213360
H          -2.28659500905526   -1.62133412668496   -2.12436993617175
O          -1.45163452894911    2.79650724677056   -0.48302485188137
H          -0.97966933514524    2.30140927922999    0.21778144784330
H          -1.02147029869073    3.65106537118540   -0.53998262025660
O           1.21270120351041   -2.05100626581216   -1.02627372719504
H           0.32446445966456   -2.05421425868578   -1.40523887075104
H           1.45920039852336   -1.11199172552210   -0.95347643675225
O           0.96359836709654   -2.23476137532428    1.60712283605025
H           1.47107946737899   -1.42923262053157    1.83716627370387
H           1.20314236026241   -2.41489701726443    0.66810998243033
O          -0.59300076452853    0.90522859352972   -2.22691988741330
H           0.25609101390109    0.84370739942119   -1.74846703756561
H          -1.20964390238003   -0.50394467288884   -1.87459591856053
H          -1.07337805071719    1.62395470849566   -1.77232062659869
N          -1.27506492056139   -1.05012791012915    1.10655908413083
H          -0.42140778024709   -1.66428123020313    1.39157930934584
H          -1.50775533898960   -1.23924010675879    0.10510588954116
H          -2.07568193891385   -1.20476990687794    1.70908540454728
H          -0.92310847839287   -0.06124837454827    1.18893434891638
