    26
        -50.46158862  Gyration_radius:  2.58897343499 Dipole_moment: 2.460
 S           0.91888194590438    2.01663532333408    0.30303310329454
O           0.78448106211033    2.61550665727483    1.60479287831578
O           1.50465820729672    0.68415235093044    0.30658284161310
O          -0.29517428268177    2.06408546784739   -0.49700099028743
O           1.99150154663347    2.90422290452979   -0.48935895627109
H           1.79487694423089    3.78960645024468   -0.19939249901266
O          -1.04621455958188   -1.61365298287914    0.93995784610181
H          -0.13178574660272   -1.94121543972026    1.07674829060657
O           1.61144417615295   -1.90042943291384    1.05154498719029
H           2.05713557390837   -2.26350041750054    0.28345493245176
H           1.66433994488456   -0.93272201309869    0.94832129264690
O           1.78670384329436   -0.36156831887183   -2.08546721868915
H           1.80201641511423    0.04087431640395   -1.18589835450794
H           2.21633304172503    0.27292048261281   -2.66035978683622
O          -3.18191096077339   -1.74479388894616   -0.98333478300621
H          -2.64259922869260   -1.92786856300657   -0.20127630497486
H          -4.09573770438858   -1.80147299147981   -0.70259509920696
O          -0.80749638828484    0.64230496664241    2.38983896641630
H          -1.10002131026928   -0.81530199717115    1.50657958326713
H          -0.44481507692019    0.44469096110360    3.25663622501318
H          -0.29880910804709    1.41077211145579    2.06463429572430
N          -0.82675630056584   -0.32186142954627   -1.37653128220339
H          -1.69023733248506   -0.50894937764703   -1.88475157597963
H          -0.86432492109405   -0.89085178686244   -0.48125020303434
H           0.02947602487027   -0.55303197359944   -1.90894141268177
H          -0.73596581575949    0.69144861089772   -1.07596679599209
