    26
        -50.46245830  Gyration_radius:  2.53047411792 Dipole_moment: 4.468
 S          -0.83837362263718   -1.40172473206869    1.54330888824668
O          -0.90089596085193   -1.56976618038528    0.08381998724333
O          -0.07925131024310   -2.46146768778123    2.16924140223525
O          -0.39023607013849   -0.07314669778940    1.89085902351303
O          -2.33148661042950   -1.53120716768968    2.05835945116569
H          -2.51894688359756   -2.46392513407960    2.00391506261210
O           1.03387590226099    2.16406809621761   -0.69337510608670
H           1.54070382946770    2.80167733790925   -0.19016631793545
O           2.19441600918809   -1.17248936003365    1.97147480760521
H           1.46233594738700   -1.81577187979836    2.11864853521774
H           1.93182744838009   -0.40851549088936    2.49400390270619
O           0.32778021278465    0.83390807722988   -3.01628918380077
H           0.07002526058615    1.33303647636756   -3.79256212495011
H           0.60391151898529    1.48125822636363   -2.34865168130698
O          -2.03052596168240    0.23534144760730   -1.57751061759305
H          -1.80111173010603   -0.53010770680624   -1.02308075198530
H          -1.29443239804862    0.32428268762199   -2.20399488179223
O          -1.27366516205015    1.92777366454751    0.35698023828687
H          -1.75239134444883    1.42936195356423   -0.34351807138912
H          -1.05862973109682    1.26249400362917    1.04161129693391
H           0.09958395014900    2.15932706072405   -0.27769854702645
N           1.42135947781377   -0.50332278633067   -0.47214842733923
H           0.45345013135144   -0.92959057675866   -0.38809865958577
H           1.89279528755733   -0.86739703844734   -1.29466393074780
H           1.33021467430315    0.54010621411030   -0.54303825503373
H           1.90766714512295   -0.76420281703824    0.43257394080370
