    26
        -50.46229150  Gyration_radius:  2.41091274875 Dipole_moment: 5.654
 S          -0.37406492171330   -1.75631512036417   -0.92540617032878
O          -0.96918942794460   -0.84981089115308    0.04848795374043
O          -0.75949292152135   -1.51906977652378   -2.28900257087314
O           1.07105749301197   -1.84356129858820   -0.73736716360511
O          -0.95553405404470   -3.18795782805481   -0.54164380934545
H          -0.93792644161585   -3.64280159521969   -1.37732237979571
O           1.58300022610744    1.93299585176902   -0.20977894800778
H           2.24615171533480    2.46991610123383   -0.64506636885464
O          -2.48894677203067    1.21099303220187   -1.06965289879382
H          -2.46148718909782    1.73126890164101   -0.25925384154550
H          -2.24096407437735    0.31010214232934   -0.81358132384519
O          -0.79271766935560    1.63012496440273    1.30590141097878
H          -0.04105790583474    2.09584232884127    0.92292916171781
H          -0.88298822078333    0.81826769288000    0.78083164009053
O          -0.24343811948241   -0.70444580907076    2.67280627819607
H          -0.68423207490239   -1.06965903269386    1.88477105424608
H          -0.59257010230763    0.19786141474647    2.73937597392413
O           0.03280371525252    1.02601727714252   -2.09382108538989
H          -0.09124504223704    0.08428596319340   -2.30380045236202
H          -0.87546893909943    1.33914450293664   -1.91286693693171
H           1.01141975357211    1.56560307128032   -0.94443745362901
N           1.91777421644478   -0.35824234348357    1.17616426253197
H           1.63152517014806   -1.02848068620792    0.38267938867881
H           2.83631795695372   -0.59080949378112    1.53632380926275
H           1.89656476156240    0.59790013408195    0.75698512837171
H           1.16470885795966   -0.45916952353984    1.91574534157107
