    26
        -50.46627191  Gyration_radius:  2.44604849243 Dipole_moment: 6.896
 S           1.66670736943710    0.62733486526687    0.88985788196935
O           2.00413627152553   -0.31177712724916    1.92042957514141
O           1.60040891724683    0.03227859200780   -0.44966906135793
O           0.46501808957378    1.41098176262736    1.13735729444455
O           2.86543044421151    1.66538525916139    0.83741808346995
H           3.46669272303951    1.25322724487873    1.44755456100992
O          -1.91359385703042   -1.10358461298144   -1.21004084167383
H          -2.81667104994087   -1.40282564555482   -1.31741147310513
O          -0.93822098495617    2.96027940538652   -0.43109921225632
H          -0.33950178580576    2.54136165535514    0.23111303764183
H          -1.79066480002529    3.03051832989801    0.00370636794191
O           0.55999711401342   -2.49640767265872   -0.73895880446494
H           1.08877180749053   -1.68511629721238   -0.67317344131892
H          -0.31466624450192   -2.21894398124530   -1.04135678574205
O           0.12186234661868   -2.28460794173685    1.95722366043052
H           0.86328898781844   -1.68228136829239    2.13664175911936
H           0.30793810109064   -2.65217402268482    1.07270142522851
O          -1.54518726008724   -0.38535193172547    1.22593012738326
H          -1.81640404194441   -0.84469648499402   -0.23451313939780
H          -1.07882610128083   -1.16406789752761    1.62656018041006
H          -0.88816941829052    0.33139940108332    1.27608529595963
N          -0.32213051009141    0.88438533250170   -1.96586614548823
H          -1.04168561738016    0.13075154486978   -1.85396173757897
H           0.52779669930145    0.56675235668360   -1.39555885406020
H          -0.06987213986004    1.02416480878687   -2.93790048021812
H          -0.66245504971208    1.77301441531393   -1.51306928340955
