    26
        -50.47071250  Gyration_radius:  2.415830828 Dipole_moment: 4.167
 S          -0.80413731309429   -1.18772762686853    1.43291571711307
O           0.56949763433371   -0.91369982529282    1.77961235832617
O          -1.66102283981681   -0.01413448827818    1.41906785775922
O          -0.91310459698235   -1.94456059681145    0.18359600603793
O          -1.37083708522152   -2.13119525299516    2.57103570652923
H          -2.30618448494806   -2.11794298050576    2.39945667688538
O          -0.50675781270031    1.37214882568624   -2.06178046163159
H          -0.79242470177879    1.73875842397410   -2.89921283702353
O           1.60952696471088   -2.12419627398261   -0.44316445669007
H           0.63276728843146   -2.18763006958505   -0.32970161246530
H           1.92535985415220   -2.06493228987526    0.46560320493179
O           1.84095193858771    1.35831806951348    1.21677918940756
H           1.49330941605091    0.54418246349216    1.63397124389316
H           1.04550127278043    1.93732744017658    1.14093581506990
O          -0.55232740374828    2.32566631238004    0.65390195346556
H          -1.01767818291923    1.55742968812854    1.03724124676074
H          -0.61048834625012    2.21954652003867   -0.30496030201240
O          -2.34937901710003   -0.21845284351024   -1.15436854690291
H          -1.23030527307559    0.74092052951554   -1.77398275247027
H          -1.86577849879902   -1.03106788062851   -0.90257828678171
H          -2.52745618358760    0.17649284635376   -0.28731434866448
N           1.89103801248237    0.39744340288514   -1.18460405830156
H           2.70176610418628    0.60158161943441   -1.75790346560340
H           1.02285022756745    0.74943645395836   -1.63178980899913
H           1.80487188202914   -0.64777101821615   -1.00185974038540
H           1.97044114471436    0.86405858102911   -0.20089630824461
