    26
        -50.47126123  Gyration_radius:  2.42927964854 Dipole_moment: 4.305
 S           0.86573779376076    1.69023749821495   -0.21893131190861
O          -0.32661921273690    1.62592538782217    0.61962842816035
O           2.07785306156409    1.63166791641793    0.58485220001311
O           0.83994373361874    0.71276970170359   -1.28353915387969
O           0.86014071467710    3.11241731152814   -0.90508435259584
H           1.11639949654419    3.68023678444133   -0.18617973549690
O          -1.13878833541069   -2.20006060331885   -0.31556288270036
H          -1.74373969582971   -2.92015699838428   -0.49544268745363
O           1.51889279437485   -1.88672692911210   -0.93575707100930
H           1.40011780878480   -0.99849248135765   -1.31902027261472
H           0.60964761614181   -2.20783172098028   -0.78667980611035
O          -2.79332221125982    1.64196689563936   -0.37475819807001
H          -3.36571050794749    1.43867732586550    0.36692280074326
H          -1.89472715348254    1.75410966074723   -0.00264717429250
O          -0.55617718421813   -0.70513048793759    1.90357182070653
H          -0.59243697231348    0.19704574460089    1.52409244867331
H          -0.88826457266205   -1.29705051755447    1.20229114130013
O          -1.59712585775514   -0.23544340244832   -1.93782235302250
H          -0.71313636544812    0.17273574640302   -1.88241633674920
H          -1.37419153718470   -1.46748477091721   -0.96292215148912
H          -2.19878657772353    0.41716376033290   -1.53277178480794
N           2.00894363561430   -0.84636952777629    1.41395134612213
H           1.97655879769424   -1.39658610759386    0.49919057160376
H           2.18210245321893    0.16343873796692    1.15278643313573
H           1.01957474728543   -0.88034236161925    1.81238105964157
H           2.70711353069388   -1.19671659268415    2.05986699210119
