    26
        -50.46753369  Gyration_radius:  2.51797463899 Dipole_moment: 2.706
 S          -0.33309043697171   -1.73913222565143    0.54753857834286
O           0.70438459397438   -2.29617246109434    1.38269296327613
O          -0.74746039969314   -0.41434746886080    1.01361044476803
O          -0.02960738443585   -1.73881691149826   -0.86657801602515
O          -1.60387178189261   -2.68226681481114    0.72993228982222
H          -1.49939353195762   -2.98440742181739    1.62609651683432
O           0.84857782885422    0.56906169905396   -1.94533515272705
H           0.65148286089465   -0.37237242721371   -1.78868410128525
O          -2.54487784479546   -1.12527056709764   -1.58363254548881
H          -3.08436633438551   -1.71442808477252   -1.05422646627157
H          -1.62867117709650   -1.42424686475672   -1.44687383427568
O          -0.02326089602611    3.37722481075741    0.29485387074055
H          -0.64058516359080    2.78977199472662   -0.16934652656215
H          -0.46509151694302    4.22229658941607    0.37867279436666
O           2.93435148316235   -0.85718073861924    1.58157286246928
H           2.13504510507103   -1.42914217377874    1.60047331529346
H           3.62002302902202   -1.38379269763337    1.16782640709679
O          -1.56560259826597    1.33239794537142   -0.86715453360484
H          -1.37072967349418    0.75093619738741   -0.10535648349590
H          -0.02005988252463    1.00836111720667   -1.87797645228020
H          -2.17594207913410    0.79489775013806   -1.39354211213963
N           1.39753602657301    1.08511411724364    0.57146848914026
H           2.21848098347221    0.61479496407163    0.99458576241289
H           1.37972651945884    0.95909336449643   -0.48674150785868
H           0.54738150383686    0.57597551617238    0.91176413020308
H           1.29562077687320    2.08165078168344    0.78435930727890
