    26
        -50.46371175  Gyration_radius:  2.50853727137 Dipole_moment: 6.018
 S          -0.30729255619960   -1.46207093386226   -1.25545520178276
O          -1.25092448512938   -1.11549243074043   -0.21667395570167
O           0.28289999057083   -0.29397704472527   -1.89871773762878
O           0.73778977906533   -2.37235815585556   -0.79847555985013
O          -1.12400184050285   -2.23030086172383   -2.36300852840010
H          -0.45263562187710   -2.44957588773508   -3.00047207302568
O           2.59837747965266    0.93360102619591   -1.32874196761444
H           1.85942648994594    0.48108735255002   -1.78231205452049
O          -2.65185771549003    1.31551660620709   -0.02749394452736
H          -2.39103754235577    0.40239907753637   -0.22022908095502
H          -2.76859274863126    1.35050814703834    0.93737391233892
O          -2.38920431103556    0.88195848463848    2.71427434236855
H          -1.44006337661811    0.73475616128388    2.57040569860092
H          -2.77210792867437    0.02444355273949    2.90692232608127
O           0.10072567281694    0.25468122399538    1.58771343211600
H           0.10795145529224    1.06073633537251    1.00226396421211
H          -0.46098665224490   -0.36468791072024    1.07076956362691
O          -0.07656527725344    1.93940310544482   -0.40958798188671
H          -1.04755249147252    2.04762282094117   -0.31766014799116
H           2.23620463506263    1.78768897995971   -1.06955550050380
H           0.00159352058668    1.22010993806878   -1.06357863571329
N           2.27663094209379   -0.83669577730563    0.61449264223167
H           1.52663490271961   -0.38247260125808    1.21566854511127
H           2.61098734251054   -0.11534786376715   -0.08278854571626
H           3.03478208732532   -1.22998966546791    1.16089381177676
H           1.75881825981602   -1.58154368864930    0.05397267733845
