    26
        -50.46371173  Gyration_radius:  2.50860994391 Dipole_moment: 6.017
 S           0.40651076442357   -1.87871859453003   -0.33763953078672
O          -0.78146034825434   -1.45328748258163    0.36761103832722
O           0.72376249244810   -1.02850149781271   -1.47918315667242
O           1.57012478424056   -2.01573077501337    0.53233770160473
O           0.09680037974876   -3.31450415048161   -0.90890834997992
H           0.91346530363142   -3.54807460064292   -1.33753627933834
O           2.39378923308718    1.06743506679957   -1.58810085957380
H           1.93252996860456    0.22160137374172   -1.75648743922813
O          -2.86871936049287    0.08192266124983   -0.72621161552787
H          -3.17606335736477    0.52248815556168    0.08451345534752
H          -2.30853923335511   -0.64836927547537   -0.42323193882297
O          -0.29369067792870    0.98923223712373    1.23707999845040
H          -0.41994428761596    1.36370648839064    0.32248323337412
H          -0.52648727211610    0.04381970691458    1.10143423974121
O          -3.02490206079888    1.12194833958791    1.85622570637520
H          -3.15679000948640    0.38546737986956    2.45562101114934
H          -2.06729064186075    1.27961632041830    1.81864844572204
O          -0.58599138988758    1.33797461798261   -1.34193661608351
H           1.74395721422338    1.74457678066257   -1.80490961209037
H          -0.16523973495103    0.47989969580471   -1.53654307182607
H          -1.54176198472100    1.11592723838231   -1.32990616260205
N           2.25787139830818    0.44339912007157    0.98206701325767
H           1.30282298051613    0.81953555098802    1.25875934515286
H           2.97838782279540    0.66035230153802    1.66163944335946
H           2.11296915114486   -0.60752156220346    0.87376532877130
H           2.48388887569454    0.81580490363615    0.01840865192907
