    26
        -50.46371169  Gyration_radius:  2.50871995918 Dipole_moment: 6.017
 S          -0.49861187416270   -0.31255019199738   -1.86091490459041
O           0.25336892472778   -1.42618445466946   -1.29438941189143
O          -1.39277480277868    0.30516550917957   -0.90776721012964
O           0.40611986233005    0.63962619096077   -2.49692307584296
O          -1.40555040650006   -0.90797389554297   -3.00403256560505
H          -0.76600196640280   -1.27722422305008   -3.60395071648862
O           2.71322017964643   -1.40597803339093   -0.22669284048727
H           1.92105776201952   -1.60898897627346   -0.76338929658919
O          -2.44278453332060   -0.93319892433589    1.38863588651100
H          -2.56029993352996   -0.14603731625298    1.94752933308548
H          -2.31050356885629   -0.59200390381169    0.49140310822910
O           0.12275652141179    1.21476720490474    1.05098114345093
H          -0.51589110986312    1.06020232098179    0.31982059234993
H           0.24677502704673    0.29432815811201    1.41157108146947
O          -2.26253814853568    1.63339553127948    2.46369352733723
H          -1.34237053223347    1.66619168749564    2.15470789557186
H          -2.76266857745337    2.21986693862293    1.89366997055435
O           0.19723192744906   -1.37787217335654    1.41308629082869
H           2.47267621322825   -1.66923472146617    0.66808713714080
H          -0.74990886366117   -1.43592060539679    1.66316053666347
H           0.17940230731050   -1.54390754197618    0.45221742977476
N           2.13298371524653    1.14612280881651   -0.63051722829655
H           1.44895469151992    1.35287654037327    0.15656140239305
H           2.57004194727372    0.20256251796606   -0.43807607429782
H           1.52069678616077    1.02469472423940   -1.49513758742348
H           2.82461845198271    1.87727480858850   -0.75333444377760
