    26
        -50.46877040  Gyration_radius:  2.51397169029 Dipole_moment: 1.713
 S          -0.90114767780709    1.70556343223968    0.01705530745743
O           0.32379643343177    2.22403514334371   -0.55284770769706
O          -1.45125714913256    0.56599455848256   -0.69595671649168
O          -0.77917962751949    1.43867097284815    1.44657471368150
O          -1.98476922908220    2.85205421029953   -0.13376517082157
H          -1.52813241092136    3.63346680155024    0.16217718190062
O           1.50670276735981   -1.92665486270936    0.28845830646136
H           1.67775818040353   -1.82337974905895   -0.67295897508383
O           1.76542242215527   -1.37032571738265   -2.31570997447337
H           1.21178249872532   -0.58295292735639   -2.53454158680083
H           2.60583219094573   -1.23416524642097   -2.75431595085392
O          -1.47434043279091   -0.65890154017165    2.90614748324279
H          -1.33830902527960    0.20037454659268    2.45019216220814
H          -0.78464187797642   -0.71223772473116    3.57098204133375
O           0.27210249120553    0.79104122177485   -2.78578335193200
H          -0.61776282474220    0.50263861572441   -2.55144556507799
H           0.48071422547178    1.43444643071094   -2.08280690354232
O           1.73503885148031    0.60055678583366    1.16015095100366
H           1.92740138648838    1.18759088774646    0.42145589770425
H           0.85400609545899    0.89505727949564    1.45270127883281
H           1.73902627067382   -1.05918767052919    0.68699180977392
N          -1.06531054781146   -1.75913487558346    0.49928012228372
H          -1.28572265763760   -0.88343324671632   -0.04085816350260
H          -1.60547933487477   -2.54369769282788    0.15261438292558
H           0.00598822318105   -1.93219447583560    0.40724094493247
H          -1.28951926140948   -1.54522516734315    1.49896751253824
