    26
        -50.46254293  Gyration_radius:  2.49165613048 Dipole_moment: 7.191
 S           0.32349495289014   -2.31617514806631   -0.41672813194711
O           1.35965969613556   -2.33239991578794    0.61975528462219
O          -0.85161394902029   -1.59038192490428    0.06770656811009
O           0.79614200104571   -1.85465290071040   -1.69014226795940
O          -0.13010295001621   -3.82202561302954   -0.59289785498804
H          -0.36639377117797   -4.05908196399082    0.29772316342019
O           1.25948232523162    1.89821175424697   -0.44174917185785
H           1.92924337436348    2.48943710154807   -0.78697932192763
O          -2.09304538680372    0.35262488818519   -1.33866413138569
H          -2.04819087419788    1.04149272819349   -0.66050284392180
H          -1.76777140580604   -0.45842149246483   -0.90523117509402
O          -1.26276353563468    2.32145988795960    0.53395583351007
H          -1.57324045189187    3.21103367670137    0.36175927667641
H          -0.34927769426025    2.26414737421751    0.19023804220422
O          -1.07175695093591    0.05658265553869    2.14518329456050
H          -1.39300176781207    0.87389619744118    1.73627426893998
H          -1.16579617768633   -0.63615392896281    1.45621387096058
O           0.32240831550470    0.63996344517314   -2.42775513157748
H           0.59412316014781   -0.29416870292789   -2.31003347935972
H          -0.64614630210748    0.61907853995247   -2.24885695548682
H           0.90603485295740    1.38156461246237   -1.26175415947240
N           1.47414083357996    0.06015012576890    1.54629500947633
H           1.52516940757511   -0.94041672974630    1.15076391991115
H           1.54191356290648    0.75134605699714    0.77018867454091
H           0.49163537405766    0.13215262496987    1.96280725707707
H           2.19565338095507    0.21073665123518    2.24243016096822
