    26
        -50.46877035  Gyration_radius:  2.5141413458 Dipole_moment: 1.689
 S           0.30542139073450   -1.79846305887640    0.63107541729265
O          -0.84264977201754   -2.14920034657733   -0.17712637142601
O           1.33371489147220   -1.06440426968342   -0.08561128507860
O          -0.07162639676099   -1.12530280311221    1.86960523351327
O           0.98835096648413   -3.16482854065813    1.05310304990792
H           0.25496810513110   -3.70657992070319    1.32762584523048
O          -0.86874772980463    2.23051435333374   -0.57624145825954
H          -0.82564684299087    1.91132377622846   -1.50388582379156
O           0.18404711722977   -1.43638439694564   -2.51844129524512
H          -0.37732182174420   -1.79530142320196   -1.80605706315975
H           1.03239726624530   -1.31280070290961   -2.07658971918719
O          -0.64722088053273    1.05890687160586   -2.97121798030600
H          -1.35641032782353    1.00877979148365   -3.61288292532792
H          -0.32382872901805    0.13445116988381   -2.84812603190622
O           0.85527325168048    1.06681994122437    3.03134387996883
H           0.57831889102630    0.17242450928979    2.73464804141713
H           0.07478505613398    1.46350267721228    3.42386114881620
O          -2.06235893265232    0.16921302266420    0.65870081391391
H          -1.41192473120621   -0.23161799462664    1.26265822534613
H          -1.44435735774117    1.58668631366783   -0.10782465686391
H          -2.23834790503842   -0.53679876471225    0.02790877332963
N           1.39757551891409    1.52307655709617    0.44891282067810
H           2.21851954430489    2.03075215070703    0.13934193238386
H           0.48606411758581    1.91238672141775   -0.00254912626957
H           1.46419349402804    0.50608808746367    0.18734896742739
H           1.29681185636418    1.54675626872102    1.49041959757923
