    26
        -50.46147053  Gyration_radius:  2.59193238804 Dipole_moment: 4.227
 S          -0.50582242163035   -0.53969895924185   -0.09393165265130
O           0.06618712172846   -0.05507862402277   -1.47667495257228
O           0.18352708720092    0.23724646909394    0.92664551422579
O          -1.93813698822228   -0.36429011471363   -0.09444234762908
O          -0.08734431665230   -1.95025783257732   -0.01995337406670
O          -1.88842735088047    1.91551899746946    1.31511135412113
H          -0.97083707590310    1.65288921739059    1.47785003730174
H          -2.26155081743339    1.11016845432799    0.91960963811389
O           1.26681812499993   -2.53757886090195    2.24143508424341
H           0.68776519447058   -2.42266466134946    1.46156462036578
H           0.70415750673381   -2.41524666239885    3.00750201970656
O          -1.87164731456229    3.41026475548680   -0.89132266669252
H          -2.61339865659341    4.01617310045475   -0.85843204603212
H          -1.84524547333251    2.95963736657191   -0.01285469106359
O           2.68486495114761   -0.44490783677802    1.32933818758841
H           1.82272830714127    0.02912129158892    1.25903268203611
H           2.45806751459161   -1.21651525690098    1.88787496508328
H           2.63941265488271   -1.06671773315657   -0.02689570966942
O          -2.00367542181851    1.15053729430782   -2.31513756961385
H          -2.46585708328463    0.61709695101695   -1.65054405827638
H          -1.94174726723313    2.05700044363215   -1.93249768079393
H          -0.67881034160069    0.46499715172858   -1.92409145688031
N           2.27392988833261   -1.55236569949424   -0.94561093604174
H           2.86408955617106   -2.31744384925908   -1.25598013800488
H           2.12997640360078   -0.85788319797562   -1.67699196496283
H           1.29097620816517   -1.88000220425492   -0.65060284782322
