    26
        -50.46254349  Gyration_radius:  2.49149799157 Dipole_moment: 7.189
 S           1.34201574091978    0.70122738104963    1.82899188065392
O           0.22709891081272    1.36550310815414    1.15229248604373
O           0.84432375896813   -0.43860873534132    2.60462846157603
O           2.42578646598748    0.36580418800714    0.95091715319833
O           1.89252558655655    1.73502968330026    2.89316633857597
H           1.14263848653685    1.84063150709883    3.46918900531581
O           0.12641314927238   -1.77276231747505   -1.48839832575337
H           0.44455340809934   -2.52987253097419   -1.98123164210225
O          -2.24190254386619    0.47960847603740    0.70764870439664
H          -1.43005300325619    0.98140729106023    0.93640931514607
H          -2.31746869760204    0.53481526786212   -0.25655074934271
O           0.23913151798867    2.02472595364691   -1.46690670446651
H          -0.57977059322942    1.57043256840612   -1.71073313465058
H           0.29347521350289    1.95585671338161   -0.49542793535899
O          -1.78818384758637    0.11066551122306   -2.01607930028226
H          -1.13866694501385   -0.61101659458968   -1.90088616016728
H          -2.09143892858738    0.07458819570960   -2.92390321315654
O           1.94476028281364   -0.01754573672681   -1.62051523836235
H           2.29405136325105    0.07724974329329   -0.70980911774709
H           0.88838568701653   -1.07885884608747   -1.53693926188829
H           1.44506511565026    0.81980478349888   -1.76098949702365
N          -0.79860577304364   -1.67242803022152    1.06341092054556
H          -0.37119179910592   -1.83643881607272    0.12789453026544
H          -1.54076364428821   -0.91012021865484    0.95347403138494
H          -1.18339990819913   -2.52647774546864    1.45123795874545
H          -0.06877900359445   -1.24322078011729    1.72910950445308
