    26
        -50.45487887  Gyration_radius:  2.56189820696 Dipole_moment: 7.149
 S          -0.08482967913915   -2.02932111324662    0.28775584163020
O           1.34538466696202   -1.92733235721215    0.61412696590363
O          -0.77100410541357   -0.84802576214743    0.84652712227732
O          -0.33154727223837   -2.20008481488898   -1.11404378532279
O          -0.64477685444344   -3.28187685906779    1.03453074638490
H          -0.63006712252249   -3.03188714423506    1.97811595632352
O           1.51145556979512    1.35803987639379   -1.92224412303981
H           2.20236688661931    1.14186130693639   -2.54929550405224
O          -2.05004715594631    1.05099213907491   -0.58906781657836
H          -1.75961575621770    0.29945732906046   -0.04202988877475
H          -1.48312333434687    1.79326191038961   -0.33043435760302
O           0.00031283549855    2.95912687594351   -0.21044095809280
H          -0.34214386504146    3.81427933968593   -0.47472530163241
H           0.51976189163909    2.62466872080367   -0.95769407495830
O          -0.87758627908162   -1.82997818611265    3.26500102130267
H          -1.77639706838423   -1.83912774354648    3.60123609856946
H          -0.88462683207558   -1.26021662220056    2.46686935329112
O          -0.55646511875165    0.02451240590466   -2.56623984274394
H          -0.46634521961235   -0.87319821311348   -2.18568017149012
H          -1.27341012740838    0.43537068426074   -2.03423507538989
H           0.69031240372844    0.82511074751638   -2.22793470319414
N           1.55616799525440    0.58474516855587    0.63565323669637
H           1.66447616899521    0.89919525853029   -0.36467432209155
H           2.24426022036517    1.01724013674262    1.24299243980003
H           0.60536320436206    0.81366927504363    0.93565298839251
H           1.59212395740798   -0.52048234906032    0.66027816437773
