    26
        -50.45487889  Gyration_radius:  2.56187832283 Dipole_moment: 7.148
 S          -0.28155558114847    1.95785367432980   -0.54455767645841
O           0.67220174536825    0.88582834131681   -0.89059006660470
O          -1.62551371845323    1.52920957733874   -0.95984704387993
O          -0.21252593990172    2.33405191955697    0.83701474244231
O           0.09653755260614    3.20482328238958   -1.40598171844539
H           0.22450847086564    2.85099418975059   -2.30684467103854
O          -1.40329061386907   -1.41096282933495    1.96589329514646
H          -2.18181786961353   -1.27075398126850    2.50582130090003
O           2.14595297900917   -0.53573763838450    0.87322654106288
H           1.76199886455912   -1.40269647213636    0.67271883604976
H           1.77132716302799    0.07338094911959    0.21216289987337
O           0.82615542200639    1.58660776619174   -3.40245923090058
H           1.73499203049861    1.74111943501462   -3.66917282615109
H           0.86421542275214    1.12500910433044   -2.53806217534397
O           0.55180729678501   -2.85314263083764    0.59653573682302
H           1.02537163280701   -3.58460606857198    0.99541901506179
H          -0.09419471119227   -2.54932136922289    1.25262332446932
O           0.29266593493082    0.38197970978818    2.58128680247016
H           1.12495219319549    0.06859470578930    2.16311077362260
H           0.06888582032288    1.19309046837345    2.08042211400853
H          -0.73552035490239   -0.69004724469343    2.25920228908343
N          -1.34223041130265   -0.95863787817673   -0.66747342815051
H          -1.86887278793482   -1.58925473166497   -1.26274119520778
H          -1.48663189945932   -1.17314382910426    0.35446815546184
H          -0.33991994085537   -1.01984475631662   -0.86270019492298
H          -1.58949872006216    0.10560630640861   -0.83947559937014
