    26
        -50.46422719  Gyration_radius:  2.57421968445 Dipole_moment: 3.099
 S          -0.88717495556730    0.28169210924238   -2.11766946987032
O          -1.26767589343374   -0.04435940111238   -0.73949540018452
O          -0.58930694103710    1.68496020439460   -2.29404350160609
O           0.15266996697213   -0.61704028000249   -2.57656682747011
O          -2.17504431599918    0.01387991283257   -3.00573367354788
H          -2.37722334452277    0.89983199023562   -3.28782483342261
O           0.80372581318910    1.49439051041543    1.84671598728390
H           1.37460418084701    2.03975553759382    2.38856486037430
O          -1.88556922002134    0.50172366662334    1.87603042011906
H          -1.90831326175299    0.39761084019388    0.91088289597693
H          -1.10540113657095    1.04646785678289    2.04699075973602
O          -1.24776268932558   -2.00915367969285    2.56144475292394
H          -1.58493627758146   -1.08523869132161    2.46382418248809
H          -1.98620631363084   -2.58202719280135    2.35197935461416
O           2.30833131624512   -0.98183429805830   -1.20287944575393
H           1.50062356975514   -0.90397860727852   -1.77594544620839
H           3.01344001368271   -1.26850891019750   -1.78470261799290
O           1.49824546024377    1.70786246784307   -0.66301162951452
H           1.01739588210558    1.71819363519046    0.90085891498780
H           1.94583446967186    0.88346135718867   -0.90197176775361
H           0.75309895674598    1.81143467574743   -1.28990433078048
N           0.55516821476982   -1.02709740174456    0.86728974617939
H           0.07680085633965   -1.69824543009479    1.50211177614286
H           0.81448997241503   -0.18309318536708    1.41341173006679
H           1.36556908638865   -1.38452192909940    0.35098131270617
H          -0.16538340992566   -0.69616576751074    0.15866225050226
