    26
        -50.45487886  Gyration_radius:  2.56184749069 Dipole_moment: 7.148
 S           0.83005297810364   -0.94499620137964    1.62067682367078
O           1.12014738014519   -2.04341669139928    0.68704305211134
O           1.04344059819818    0.33183228327704    0.91163891010720
O          -0.47270596056758   -1.03778883795449    2.21165022465454
O           1.88851242838592   -1.01636268428364    2.76712630856071
H           2.72811106579862   -0.75598425982945    2.34239793769203
O          -2.21561640718161   -0.84939542835779   -1.48131285151998
H          -2.75789353577275   -1.63674412897094   -1.53892733715069
O          -0.85888898189886    2.18125105590972    0.39813702528476
H          -0.12696430779196    1.62725612817345    0.72336961157368
H          -0.81097389462426    2.13141570106595   -0.56854251612289
O           3.63764992358503    0.27287367686156    1.21274601671264
H           3.96087636660555    1.07339454871219    1.63193120812491
H           2.71427930637675    0.45597789413320    0.93775601629358
O          -1.00927785095396    1.51245146602071   -2.34384624467177
H          -1.63582795371472    0.78955149058703   -2.18588349263846
H          -1.49721552326123    2.20675454000034   -2.78913100842518
O          -2.47705298432815    0.09396816648536    0.86625041310322
H          -2.36657684476392   -0.48398372256609   -0.53500354204264
H          -1.86576049123557   -0.39307793038550    1.45614419936510
H          -2.07936211274306    0.99040742023039    0.80278683459811
N           0.45635364516585   -0.90544153267811   -1.46231412712249
H           0.92490797768299   -1.16527023583452   -2.32389421445786
H           0.78155645944402   -1.50919010171675   -0.59452527293071
H           0.67966769143589    0.05732483348676   -1.19830445282285
H          -0.59143897208002   -0.98280744958218   -1.54796954196498
