    26
        -50.45487887  Gyration_radius:  2.56193253456 Dipole_moment: 7.147
 S           0.03048694803416    0.50258515455593   -1.98857879430877
O           0.91616769598583   -0.23401975987683   -1.06582235316522
O          -1.24794343476690   -0.21922114113765   -2.07306672959193
O          -0.12407550797777    1.88043270229861   -1.62428958797795
O           0.69149296337079    0.44638144355905   -3.40279042985532
H           0.94970036548226   -0.48830450875671   -3.51597591981394
O          -1.88702836065052    0.80258475321221    1.90244649001519
H          -2.73443218325849    1.24889798774180    1.90190975055232
O           1.61338979103243   -2.00128612345196   -2.85892407909103
H           1.43942585574869   -1.49559499014399   -2.03690068681006
H           2.56726681583441   -2.04902665457757   -2.95283993831967
O           0.13042098905047   -0.88546179914785    2.82843730994281
H          -0.59247682731318   -0.24206746931603    2.76893373892319
H           0.44201524355833   -0.86570418619643    3.73448652079621
O           1.87554810042113    0.70822277325457    1.27834938424520
H           1.44843019432373    0.05270639315575    1.85029267306471
H           1.69738530900294    0.41348957368108    0.36742502002522
O          -0.16053136182050    2.42919438333681    0.98450045532760
H          -1.21520625464459    1.49421550184302    1.55306390847035
H           0.69847703003796    2.00416891139143    1.20194790571590
H          -0.20091463632287    2.39086641618159    0.00688403745732
N          -1.28494507466389   -1.20667552359259    0.24616932428856
H          -1.64049207451885   -0.45992895668463    0.89977974532583
H          -1.38315817175042   -0.83803684511524   -0.79204461947571
H          -0.27580931299061   -1.29452298910757    0.38891965828631
H          -1.75319409122857   -2.09389506706460    0.39768721596094
