    26
        -50.46862994  Gyration_radius:  2.50058897305 Dipole_moment: 2.825
 S          -1.40605473608569   -1.43627723069569    0.83197386584870
O           0.00731366779986   -1.32104149314603    1.18156788062072
O          -2.11602222735881   -0.17206664631755    0.93303277176862
O          -1.61190269548114   -2.10573586904891   -0.43133371729540
O          -2.01623989117869   -2.37962632805994    1.95543097854654
H          -2.90091068698041   -2.54458848564246    1.64478290123812
O          -0.43860310575587   -1.06357063780159   -2.56893553931667
H          -1.00099080251795   -1.59102057056763   -1.96364998885159
O           2.45831548881935    1.39746011663088   -0.96559308501761
H           1.93867124087296    1.82868055905298   -0.25447278005565
H           2.13306951897866    1.77523154875732   -1.78600781776132
O          -0.32644344939888    0.95068452263784    2.52709048324784
H          -1.19265881109714    0.78911821635415    2.10908237224641
H           0.12312967362960    0.10511530911277    2.37379132018418
O           0.75573183176538    2.55220473724423    0.76296872460239
H           0.83193619278666    3.42564764247778    1.14855536345780
H           0.38577965782490    1.96412580410799    1.48056770835631
O          -0.87010728891162    1.13311164824642   -1.06647278543135
H          -0.67540371199852   -0.14457053888560   -2.34747750573845
H          -1.45435504348346    0.69941107607474   -0.42010310781570
H          -0.35655737714012    1.77037260485787   -0.55092962497081
N           1.57578110450520   -1.13923675304896   -0.92083997134941
H           2.27176689082804   -1.87051116000610   -1.01130651011050
H           0.84973153013413   -1.17161982557666   -1.71668151793723
H           1.01610236716307   -1.26506355862436   -0.03452232961354
H           2.01892065239142   -0.18623467834542   -0.91051807888181
