    26
        -50.46907329  Gyration_radius:  2.47657345118 Dipole_moment: 2.897
 S           1.93978644774071    0.19988527879407   -1.08734492683402
O           2.18992663048325    1.53267192693239   -0.59247881856153
O           2.34482588402130   -0.83831725504594   -0.14625161033732
O           0.57575054707714   -0.00406762297860   -1.55333822313002
O           2.85567690193133    0.02125682030548   -2.37101330844321
H           3.68432342850549    0.35929332190353   -2.04901003931863
O          -0.76831131599422    0.02655821505773    2.36165309766739
H          -0.80751409576460    0.24584072677272    3.29311071849070
O          -1.23804015139414    1.85321944224387   -1.15154870297623
H          -0.53527060117078    1.18894606860278   -1.34958847618761
H          -1.37725171256712    2.34833352042469   -1.95947617226070
O          -2.66359710615766   -0.07132285572283    0.23788921149019
H          -2.18886674445851   -0.04394954561505    1.08055905925815
H          -2.34791210143793    0.69961732193877   -0.26179026547086
O          -1.27282787797553   -1.92735564021656   -1.08157988171067
H          -0.66103320098604   -1.31781441895112   -1.53163009632743
H          -1.96581627875667   -1.34300016605115   -0.69147553428647
O           0.26912135108383    2.06257785022859    1.14615521528218
H          -0.32978466663439    0.81164429634992    1.91380057136505
H           1.08424778566165    1.90967374333200    0.62314241711134
H          -0.39773297368352    2.27874187141444    0.47601558475276
N           0.32399370602699   -2.02317334740009    0.96321356548010
H           0.53849724584091   -2.90495316942029    1.41416611447671
H           1.19942810554119   -1.58688039376556    0.53751826875824
H          -0.37310526500733   -2.14038203478559    0.14628857748489
H          -0.07851393192383   -1.33704396434718    1.63301366422716
