    26
        -50.46215071  Gyration_radius:  2.51043101604 Dipole_moment: 3.331
 S           0.20550686390472   -1.96932088122645    0.82894317672164
O           0.99256296520538   -1.50354816233682   -0.30919250213080
O           0.60630538433773   -1.34002779292482    2.06878733962612
O          -1.22012621341765   -1.88618551094395    0.56829903144822
O           0.54160555132067   -3.50926001099197    0.99334409716568
H           0.19251750693623   -3.91989340189446    0.20731750241381
O           0.48985285798695    2.34119357800172   -1.94885439321097
H          -0.07619233245103    2.86115070312155   -2.52004693789089
O          -2.62888900107333   -0.40413721528546   -1.24515349659736
H          -2.28164902311001   -1.10682792767290   -0.67151708869843
H          -2.78350244324847    0.34230831203892   -0.65982452003235
O           0.45861539397135    2.38206751385620    0.68691543005663
H           0.44495757545805    2.49291191816380   -0.29490930800541
H          -0.34495351479456    1.87166044742758    0.91372036515128
O          -1.48362553382823    0.62701850421421    1.41665814112103
H          -1.39070646506741   -0.30220397967198    1.12593002985555
H          -1.44398265627081    0.59308572535641    2.37439050382713
O          -0.16438760455077   -0.16743366653348   -2.38106865300284
H           0.29793956373588    1.39071950424565   -2.16660528013235
H           0.29361287774265   -0.72204841889255   -1.72759068773883
H          -1.11337428960419   -0.23768515664928   -2.15730950178003
N           2.12723632116069    0.45238907714120    0.98562084435729
H           1.98195950066809   -0.14830160742451    0.15012220274145
H           3.10488645395543    0.65384992380666    1.16226206387698
H           1.51024034845711    1.35615246992099    0.87618738024667
H           1.68358993258675   -0.14763396482009    1.72357425060800
