    26
        -50.46132342  Gyration_radius:  2.48127195142 Dipole_moment: 7.452
 S           0.90752394320894   -0.01570505789781    2.04864239516862
O           1.44455650782943   -1.28373649404540    1.54974688736839
O           1.81029084241081    1.08923677495938    1.86188637880393
O          -0.43539036261227    0.20586902148777    1.53107705632376
O           0.74682198440573   -0.19053142160544    3.61715617371018
H           1.54638416554039    0.22519930278673    3.92104227353125
O           0.82532520912860    0.08401424462415   -2.25561872215626
H           1.40960641352881    0.22133824421513   -3.00185541044425
O          -1.95887966555713    0.51865937848999   -1.85628713122484
H          -1.05221118246861    0.40253955730572   -2.17247835402773
H          -2.11547742856723   -0.19042162386161   -1.21726423950990
O          -1.21801788880034    2.39362526386466    0.02929556340102
H          -1.65706274025334    1.90958888489362   -0.69485203949107
H          -1.06931856996153    1.73541832780883    0.72539818472538
O          -1.95674748111443   -1.42305348338298    0.20878439444235
H          -2.70518751499753   -1.68834129138296    0.74442953738756
H          -1.42904070803038   -0.78880209098040    0.76260987395394
O           1.32575217043276    1.96782589221030   -0.61971354675227
H           1.04431547376598    0.83530817103919   -1.59720263459350
H           0.43045636511197    2.34865231251683   -0.45095060249498
H           1.63702950590435    1.69133445596820    0.26331629321896
N           0.49714118579133   -2.03633282531468   -0.70226597579659
H           0.69197440554907   -1.26141083994108   -1.39116963303626
H           0.84720968283331   -2.92992557766963   -1.02888581972097
H           0.95432490444004   -1.75520413942649    0.24098138716844
H          -0.52137921751874   -2.06514497666202   -0.51582227995529
