    26
        -50.46942136  Gyration_radius:  2.45808163691 Dipole_moment: 4.100
 S           1.64184904491452    0.50691268660801    0.38873931344705
O           2.54954752184338    0.08478692561943   -0.66538461483683
O           0.52492781120093    1.28602440410440   -0.10817791968970
O           1.21684221922659   -0.60837679668471    1.21913844516094
O           2.46464953922375    1.49270722739281    1.31784845624712
H           3.29553807007800    1.05101323056956    1.46551573083060
O          -0.60832854134899    1.00272533028592   -2.59136559806056
H          -0.13533953926740    1.41576380956100   -1.84807623330583
O          -0.24731564915022    1.11603484467877    2.63361005925207
H          -0.06414154295544    1.85960452624409    2.05335418552318
H           0.28110402377439    0.38291361650862    2.27052150688971
O          -2.76957998593604    0.21995974070129    2.25463495089011
H          -1.91196986592593    0.62220069794071    2.51164796179379
H          -2.87474182144151   -0.55694380741896    2.80555617766960
O          -0.34233615016023   -2.18157121936229   -0.30899376103847
H          -1.09876567859270   -1.54718313297605   -0.30219370909094
H           0.25820864257474   -1.83240956015323    0.37677413312470
O          -1.87135544101359   -0.01727400703378   -0.27469172958266
H          -1.07507079204543    0.51759993728080   -0.10466612354920
H          -1.45928804337908    0.74120264554523   -2.21453224966170
H          -2.39374339035479    0.04991564464343    0.55035918054080
N           0.93236518812129   -1.14066578686168   -2.32141557070852
H           0.39010703457421   -1.72707678509384   -1.59739170341025
H           1.71699188630882   -0.69153726033839   -1.77673142429098
H           1.27720858307187   -1.69444761355944   -3.09750819185533
H           0.30263688666449   -0.35187930820641   -2.63657127228660
