    26
        -50.46049637  Gyration_radius:  2.46075156118 Dipole_moment: 6.202
 S          -2.10482435575000    0.36260896275362   -0.45610366567495
O          -1.58551058632181    0.75285247640513   -1.75832815288438
O          -1.63525107270248   -0.99791754237410   -0.14062566805376
O          -1.84441806403861    1.30498470978197    0.59464608209716
O          -3.67630339976322    0.25917566428303   -0.60548454568991
H          -3.80141673996242   -0.21426491065434   -1.42233300369845
O           1.76025127927310    0.96601025688966    0.06770929371069
H           1.36078930287065    1.76407723138888   -0.35051764134727
O           0.01070742945552   -1.92360145774079    1.85721574291214
H           0.80205462477689   -2.07087214967487    1.31908910074190
H          -0.71638708825030   -1.75055076781418    1.23821597952261
O           0.05899304731655    2.71129281893966   -0.97281374815586
H          -0.41996340151577    3.00990431398020   -0.19394088464178
H          -0.55340289924804    2.08024989769998   -1.39855615636593
O           2.49269066824461   -1.78743788605407    0.42971777229995
H           3.11306703116449   -2.15684642557656    1.06037724837866
H           2.58851340348180   -0.82613359071989    0.48047630039749
O           0.27507288168101    0.74399341927359    2.17260556861395
H           0.17471932703514   -0.21957540592450    2.31596492769329
H           1.28096206870646    0.91275756633910    0.95110285129274
H          -0.56414727616697    1.02971231162339    1.76733008827333
N           0.60796201311565   -0.81420095298267   -1.41803016978141
H           1.18700782080413   -1.64807964382463   -1.48832063910570
H           0.36540883270329   -0.41729681863112   -2.32301031610855
H          -0.31048212257929   -1.00918343924294   -0.90971796397665
H           1.13390728566949   -0.06165866814180   -0.81666840044986
