    26
        -50.46942145  Gyration_radius:  2.45806805335 Dipole_moment: 4.094
 S           0.91567641591167   -1.35969544629876    0.64605978278492
O           0.56593324758638   -1.04681871546252   -0.72562321110226
O           2.25696281307221   -0.92493091740437    0.99991589649472
O          -0.07771224189838   -0.88523839758461    1.59585865181603
O           0.92237103971029   -2.94222164387930    0.73030326573484
H           1.34978500673051   -3.14074628480484    1.55806687085442
O           1.51338787003374    1.10681609958393   -2.13887101767910
H           1.35471155591521    0.17956081951550   -1.89037781223816
O          -3.51120024479133   -0.07282990126582   -0.68535321026374
H          -4.05170385205263    0.17865334272181    0.06477510678404
H          -3.05768420830375   -0.90432213742062   -0.42781578079943
O          -0.22610686510773    1.78712470782693    1.31667174443913
H          -0.69791088936457    1.73403717760570    0.45115502448871
H          -0.26203202914995    0.87243537433098    1.65571540483173
O          -1.93716946329054   -2.11393007927727    0.12914215077054
H          -1.32514385075540   -2.36319316684722   -0.56830679250860
H          -1.38216114628256   -1.68110287593772    0.80230965137156
O          -1.10944662848048    1.08330555520234   -1.08099964792512
H          -2.05349483909207    0.82534709902196   -1.06466296303864
H           0.62735571014766    1.48171613552036   -2.23350439298788
H          -0.62454065751421    0.24321795797620   -0.99049231407797
N           2.19131656269214    1.61750931909870    0.37540520813104
H           2.05137762475744    1.58268920100818   -0.67202940422972
H           2.93099072578097    2.25585791947446    0.64613471045638
H           1.24322163132943    1.85985901239166    0.82764251115215
H           2.39321671240369    0.62689981488055    0.67888058674203
