    26
        -50.46147058  Gyration_radius:  2.59200454159 Dipole_moment: 4.223
 S           0.51587901625492   -0.13899333658725    0.52031006295794
O           1.92239547424815   -0.31914420315772    0.12054025758464
O          -0.36165475817119   -0.78677839335505   -0.44443824231380
O           0.25506349801772   -0.51107351193255    1.88994192978566
O           0.27991865210051    1.40789683872334    0.36030100597330
O          -2.20260313705839   -1.46481174718500    1.40214662128452
H          -1.37221274647071   -1.32484082160023    1.88685684168471
H          -1.91019239694684   -1.40354359131034    0.48112089078055
O           2.24796279424488   -2.17538337801072   -1.81329275420081
H           1.97883868890882   -3.03833384558333   -1.49500483813644
H           2.21551088163077   -1.58059575172290   -1.03747628391467
O          -3.34698336261788    0.86842984049262    1.99244197270358
H          -3.03189201408827   -0.02815281726097    1.72326685259760
H          -3.99652182740177    0.72708804281291    2.68278123069926
O           0.40540174080600   -0.57996932132812   -2.94523926607905
H           1.21821843676467    0.59163230627533   -2.50439716801230
H           1.06988249919989   -1.29575125902887   -2.87429535592015
H          -0.10488367555508   -0.67803270665075   -2.10687518591088
O          -0.91234650027429    1.81586230797507    2.56309669012334
H          -0.51355296656120    0.97178083635591    2.82459482330458
H          -0.21268549693312    1.70639995455032    1.19341722125684
H          -1.86025650708882    1.61667005714785    2.37958485259439
N           1.81158392489243    1.28160688791468   -1.88357455834709
H           2.64849095942589    1.61958813566436   -2.34762640926200
H           2.03150885078799    0.67469598939305   -1.02121598407009
H           1.22512996188200    2.04375349739707   -1.54696521716935
