    26
        -50.46877063  Gyration_radius:  2.51416628911 Dipole_moment: 1.696
 S           0.34270700863853   -1.86394764081162   -0.36529396250860
O           0.98347597773579   -1.18008870659608    0.74442149495423
O          -1.08583408871747   -2.03423826336536   -0.20924717875724
O           0.69338166121773   -1.25769460764007   -1.64551146452143
O           0.96769379317990   -3.32024545747222   -0.37265304145036
H           0.39691665731547   -3.80649987718345   -0.95956645385115
O           2.32671746507180    0.73489626290634   -2.25863240466599
H           1.83315651209131   -0.10194062096437   -2.11451376590737
O          -1.85400467997511    1.34692632406331    2.26076205298591
H          -2.78497015630560    1.41838819945299    2.47384124171891
H          -1.63041556480038    0.38794598572567    2.32925849345752
O          -0.75074647212670    2.34543404909108    0.03739482661400
H          -1.19745455019069    2.09615097744410    0.87561105019872
H          -1.10635403855456    1.72759388257431   -0.63865329485528
O          -1.22927017344504   -1.24696369100302    2.32097780293022
H          -1.41668166558348   -1.60200025497985    1.43187543537284
H          -0.26529841126543   -1.24358780504063    2.34864814694192
O          -1.45249049181841    0.32233165639178   -1.57964802160782
H          -0.64896934524166   -0.18954776678931   -1.78197754011118
H          -1.99913928969758   -0.30931033812404   -1.10068974787634
H           1.88453560080921    1.17508331511090   -2.98749260361730
N           1.62095475686459    1.33720409128472    0.25322771646025
H           1.42572921597616    0.34264562054798    0.53580983396775
H           2.03400373280959    1.28812753709441   -0.70728298983044
H           0.66179854159856    1.85007037394127    0.19875003722271
H           2.25055799439476    1.78326675431749    0.91058432672105
