    26
        -50.46038039  Gyration_radius:  2.63507850562 Dipole_moment: 1.983
 S          -1.94535125278080    0.56300481298339   -0.25681894094473
O          -2.73995811914715    1.38635346790303    0.61644978260432
O          -0.77090272067744    1.23633341585672   -0.78815918402338
O          -1.61504075367014   -0.75485507739040    0.26025451265985
O          -2.88367087370523    0.26577890336548   -1.53133994799075
H          -3.51191433318842    0.97995834308082   -1.49535717476027
O           2.25305831837800   -1.05324515013339    1.02438788883897
H           2.45881879788818   -1.92541159949570    1.36381104476065
O           3.57052221369300    0.47084393162448   -1.02842594675416
H           3.72737402940376    1.38888165799902   -0.80317349024514
H           3.38268221751978    0.01551687227423   -0.19549519549743
O          -0.87117438393332    2.15887295808427    2.36134507710956
H          -1.35748038196853    2.40627819484611    3.15077009778686
H          -1.54621319002905    1.97608784805626    1.67793302099749
O          -1.09690737420079   -2.01333178050701   -2.00431424715781
H          -1.37433016979095   -1.71667758087574   -1.11130891374172
H          -1.75312572905760   -1.64233375657869   -2.59792858442984
O           0.10918887535302   -0.35852030046462    2.29152793993862
H          -0.06558069431690    0.59372120816893    2.42738843384626
H          -0.56787085933874   -0.63732923084397    1.64828475520231
H           1.49373483297102   -0.71906339509578    1.58850817612173
N           1.03412536413482   -0.53656339582065   -1.34272346020184
H           0.37076316749548    0.26732667530519   -1.11501799819974
H           1.83155779148860   -0.20245574283876   -1.88895019159847
H           1.42059235609123   -0.89365720772706   -0.44005822002659
H           0.44710286139175   -1.25551406177535   -1.81158925429655
