    26
        -50.45484459  Gyration_radius:  2.63966964802 Dipole_moment: 5.491
 S           0.68521140598711   -2.50575399302623   -0.11297788958537
O           1.19553245492885   -2.35091513391938   -1.45611717217443
O           1.66784960615602   -2.23185580397729    0.91696717612096
O          -0.54913916933203   -1.74171992575386    0.11722793981846
O           0.24863242034261   -4.02952469412590    0.03102350285136
H           0.96720230211531   -4.50425418167223   -0.37631096893819
O           1.23277117496992    1.73841941665670   -0.67490307630595
H           2.02647321024493    2.18941917965741   -0.96319634228125
O          -1.93345387293473   -0.03009025310334   -1.46198127436345
H          -1.93454433305125    0.72907262317068   -0.86379281000569
H          -1.62226911747605   -0.78460050897322   -0.93178928145935
O          -1.30850247540524    2.33625745180797    0.08431736620927
H          -0.38870621978064    2.22497522038780   -0.23105098422234
H          -1.66262713834460    3.10297383298830   -0.36872060127690
O          -1.00780693318503    1.74086357541104    2.75575015019680
H          -1.81992048345974    1.38752393426979    3.12211899601929
H          -1.22580353098360    2.07387794117923    1.86522557587370
O           0.57906987538521    0.03571439124704   -2.44200988197581
H           1.01040839619392    1.06233101694573   -1.41332970660724
H           0.88043361232120   -0.86135920087577   -2.17854167709059
H          -0.39612002690484    0.01144873519391   -2.33679053429304
N           0.68271302074733    0.10954009917028    1.41704050243595
H           1.05903327782182    0.77350774027637    0.70941130221748
H          -0.01241946196515   -0.52715829962177    0.92232237441271
H           1.40114255847440   -0.58141677336296    1.68397556262816
H           0.22483942714960    0.63272361003979    2.18613175179294
