    26
        -50.46049639  Gyration_radius:  2.46072973162 Dipole_moment: 6.202
 S          -1.42192542420561    0.63576626575091   -1.53082222011191
O          -2.03320469721692    1.36214532022176   -0.42786979303676
O          -0.00246248656691    1.01844370493166   -1.62894776857797
O          -1.61957558983914   -0.78518958751640   -1.48909786833178
O          -2.10870711747573    1.15935968314868   -2.85624742898173
H          -2.12685812924295    2.10569816386749   -2.75022446685865
O           0.05414854835476   -0.96935221397799    1.75868597904609
H          -0.93021239646414   -0.97765994727915    1.80686377295765
O           2.71520746854955    0.07638674580384    1.48808304290484
H           3.54650466055539   -0.36933098618123    1.65940520898379
H           2.01703917537574   -0.50955024012063    1.81230647646871
O          -2.52281949841175   -0.70297535552319    1.20065333386198
H          -2.47316328045886    0.12034911318691    0.67704401610374
H          -2.65471437901813   -1.39013437718741    0.54065346600401
O           2.29334449612964   -0.45692791033190   -1.29655185583214
H           2.54477176560862   -0.11582718352447   -0.42594846968012
H           1.57446281657623    0.10993093528887   -1.61851686734771
O           0.42752212148677   -2.22398917005041   -0.47109896826945
H           0.24392304218197   -1.54937066728939    0.95834597807880
H          -0.34322651075756   -1.86671756509161   -0.94907522637725
H           1.20517841556995   -1.79276330967048   -0.88146592437527
N           0.33603791028937    1.45676516378947    0.89913562147432
H           1.22887347391934    1.84004418005149    1.20177824746021
H           0.22334888107377    0.44416614329830    1.30725749452502
H          -0.45976139500585    2.02621605955177    1.17809440313863
H           0.28626811899438    1.35451702484250   -0.16244019321763
