    26
        -50.46038060  Gyration_radius:  2.63543016059 Dipole_moment: 1.999
 S           0.21927503659729    0.37261544602721    1.99567848984274
O          -0.73262753779404    0.99654586328679    2.87691402198888
O          -0.26075733365679   -0.86219944518463    1.39576527257383
O           0.81676476858854    1.25014767673204    1.00280176452795
O           1.45244574584249   -0.05857025508409    2.93710465200511
H           1.04731385233844   -0.10964198636996    3.79690977333102
O          -0.39056065467613    0.31957755560369   -2.63947781964578
H           0.01407945690971    0.90466905272281   -3.28145440522480
O          -2.84259819302662    1.16423239202601    1.24815414997016
H          -2.12068107560549    1.01742918327870    1.89115931568891
H          -3.38765853109533    1.86094629001669    1.62024573249208
O          -0.62501156018323   -2.54657664932957   -2.67684049150097
H          -0.73957150408274   -1.60927503190775   -2.88840339952271
H          -1.49517227292084   -2.88005076653420   -2.45309673024304
O           3.00992811901931   -0.11564127698710    0.45035337876014
H           3.25592349081212   -0.46317021302813    1.31022149133174
H           2.31433387701028    0.54918983251182    0.64149812265108
O          -1.14672015080644    1.88704662901318   -0.72778497932968
H          -0.79489737169966    0.92189964031496   -1.94629466273019
H          -1.90384211893002    1.61398606056320   -0.17280166113414
H          -0.37643057550036    1.81492059922224   -0.13501599684089
N           0.95721041463880   -1.22321308014580   -0.86156224075115
H           0.58265098308178   -0.52532793748193   -1.54292400612966
H           0.83488971308987   -2.14351295147501   -1.29048619210986
H           1.93173033768821   -0.99124100392560   -0.58282428796585
H           0.37998307435851   -1.14478560386709    0.03216071795839
