    26
        -50.46011357  Gyration_radius:  2.60117694953 Dipole_moment: 1.524
 S           0.80916986819059   -1.97415744602290    0.04230185962207
O           1.97229097952122   -1.38218025604416    0.69112581400374
O          -0.32341745012678   -2.06443451124869    0.96213724472177
O           0.45793626610121   -1.32391795283839   -1.19612988855612
O           1.22225880474620   -3.46401188256114   -0.30958958769160
H           1.70963432634384   -3.71425090814132    0.46865042247461
O           0.29593058768531    1.49146070165098   -1.79723246055801
H           0.83615414314387    0.77950686240831   -2.15673236566163
O          -2.72599258790413   -1.00614743361814    0.53287335015808
H          -3.39994572526558   -1.68626750360435    0.50134895324418
H          -1.86716186915434   -1.47604090859936    0.62702645127588
O           1.79592526609562    3.46301911105433   -0.34499949228844
H           1.27962827365367    3.03658808963575   -1.04301046175656
H           2.05167681368257    4.32417749613216   -0.67653555863309
O          -0.88331775927803    0.14713480491484    2.39490149689967
H          -0.60284000810644   -0.74723726125825    2.11662320456187
H          -1.78276827263541    0.22673850677341    2.05599783172568
O          -1.83148021042418   -0.05193591418183   -1.88564744875119
H          -1.11348583334724   -0.70654605235088   -1.82210287985184
H          -2.34775716621240   -0.18812634454829   -1.07419151619590
H          -0.62499147076564    1.13760855395252   -1.88220358015686
N           1.02079493709376    1.05060461843232    0.77147558412302
H           1.56723908918410    0.14629382096809    0.76548493664040
H           0.63092013952557    1.19691032096829   -0.19360404411993
H           0.24914618882322    0.92301753179832    1.47338135255246
H           1.60445266960781    1.86219396657738    0.97865078227795
