    26
        -50.46011306  Gyration_radius:  2.60180867351 Dipole_moment: 1.527
 S           0.45465543142257   -1.61582073708085   -1.32325694692648
O          -0.08355299438040   -0.59848959707525   -2.22448001603641
O           1.85434857138863   -1.35811577677611   -1.00876278628660
O          -0.36583321745022   -1.79789582308165   -0.15128629393855
O           0.43726700618151   -2.98274612590321   -2.12658466655396
H           1.20678054332195   -2.88835858017991   -2.67868707403880
O          -0.42723134181137   -0.27020156551579    2.30361450355786
H          -0.23233998747444   -1.19782050684671    2.13290493272494
O          -2.22112798877950    0.90220275700807   -1.72032820312034
H          -2.90814886650754    0.74957090576307   -2.37028254744264
H          -1.49828986428619    0.26984615393592   -1.93233772180014
O           0.43117734019097    1.96483662529384   -1.57334996688809
H           0.41821070865057    1.09029693417807   -2.01025410098529
H          -0.49957076224943    2.21058841363380   -1.51336164871385
O           1.83907144520530    1.23206354124017    3.22993720515594
H           2.00464069090716    1.48880516776873    4.13752166080206
H           0.99501495472182    0.75976078360414    3.22232844072755
O          -2.50591585833696   -0.37568460215913    0.69775953035394
H          -2.57272822607354    0.26895708447477   -0.02574098557907
H          -1.94129732422975   -1.08105725173992    0.33441887789459
H          -1.30818165502630   -0.14244426566282    1.86902870128951
N           1.39821249713131    0.68822964215513    0.55122637067231
H           1.05945309634555    1.38615221913149   -0.15778442138055
H           2.11081285775240    1.07846375579682    1.16949757043928
H           0.60941330633412    0.36431886187695    1.16563875411255
H           1.74515963699818   -0.14545803381355    0.00262081196565
