    26
        -50.45471696  Gyration_radius:  2.51450271048 Dipole_moment: 7.510
 S           0.49855332908407   -2.03695054048037    0.26030137622860
O          -0.88927131792980   -2.38695617278104    0.20112478354551
O           1.10195049542828   -1.69092391183061   -1.02734215678889
O           0.82143811416327   -1.01127462645518    1.25598472371662
O           1.26656408080298   -3.34653108318981    0.74315868387129
H           0.55816195141168   -3.96069071612806    0.90785452296093
O           0.84505936895850    2.16168199160125   -0.83776288298864
H           0.86078633405701    2.94327568832467   -1.39083192593922
O          -0.26839680826620    1.47197027264069    1.67875360823415
H           0.02217159706632    0.54575606277792    1.68279744430648
H           0.05109946823844    1.84961309025664    0.84697702160686
O          -2.93931868318899    1.18384896279846    1.42979728674558
H          -1.98825376706927    1.30424489352951    1.63967896783067
H          -3.30806880119744    2.06147318883247    1.32289626732997
O          -2.58006898181509   -0.43653772997201   -0.74321226528131
H          -2.82146878056514    0.10556674234068    0.03255075060557
H          -2.15474285597516   -1.23191979928624   -0.38447190157159
O          -0.43653784498302    0.31641826296726   -2.03900011213941
H           0.06936342118877   -0.49462455109531   -1.86686612255001
H          -1.33272205764850    0.13162297249441   -1.64895802785486
H           0.27549108826124    1.47695486360451   -1.33337173619574
N           2.52593084319240    0.23824074093401   -0.15009323379665
H           2.22077010470248   -0.52659286907734   -0.81094715259994
H           3.52955809574309    0.31916022555240   -0.03491812395276
H           2.06005065805278    1.13580153965498   -0.44227435214715
H           2.01190095804528   -0.12262748772603    0.70817455716571
