    26
        -50.45471629  Gyration_radius:  2.51441169996 Dipole_moment: 7.511
 S           1.16953263333781    1.26500330358393    1.22311589824891
O           0.03242435730039    2.10797358788332    1.44314410086550
O           1.14511321654545   -0.00364401088918    1.95282608282610
O           1.48095956026734    1.02444386735901   -0.18830950093181
O           2.42661765526996    2.05522840412518    1.80063420483240
H           2.04837789766944    2.88313460448126    2.07942045114573
O          -0.22244860305541   -2.31335178298221   -0.82847588947060
H          -0.64655702079511   -3.16188168663358   -0.95939019465170
O          -0.11360851469640    0.14402938384274   -2.24144110120985
H           0.43530060361240    0.62182269383169   -1.59900759419941
H          -0.23902872232687   -0.74437830353983   -1.87869619876117
O          -2.46984426207154    1.43238633337933   -1.98352218076234
H          -3.10765520419420    0.96198415984338   -2.52164975154646
H          -1.59408193544574    1.03342190113455   -2.17581657671682
O          -2.40152390071329    1.05337801148368    0.72329383014168
H          -1.65149347275770    1.59109146172596    1.02422287204954
H          -2.51451874060616    1.26554527252530   -0.22340522122956
O          -1.19493873322101   -1.20654382432141    1.24967347007976
H          -1.79304118046030   -0.43688477691614    1.05121833042383
H          -0.68374586785876   -1.88842805501934   -0.02490609300486
H          -0.43373319969640   -0.80582712853224    1.70073457692064
N           2.10464125594841   -1.42379815271411    0.06070126763757
H           3.00577964890047   -1.87827121989389   -0.03151538100223
H           2.06409566491801   -0.44089979251565   -0.34282313126811
H           1.31002556375772   -1.97071088319636   -0.36066592607302
H           1.84335128037617   -1.16482335808477    1.05063965569168
