    26
        -50.46011357  Gyration_radius:  2.60112403194 Dipole_moment: 1.526
 S           1.96152757755092    0.15554882162319   -0.82505042496405
O           1.24863283066982   -0.63962516526233   -1.82327225571030
O           1.68089124861828    1.57715267129988   -0.98157515012043
O           1.73773105548622   -0.32270170700830    0.51697640630303
O           3.50727975841914   -0.01630473717148   -1.13363768992418
H           3.62004130597197    0.57433465078915   -1.87137538526424
O          -0.46661103143799    0.20268913510871    2.29851547018390
H           0.47864656605108    0.37713793876587    2.36274458721448
O          -1.36328549605925   -0.07418787247606   -2.16178483572992
H          -1.65901745352387   -0.96558308311129   -1.94234749569077
H          -0.39760326012415   -0.16740781000360   -2.28347412141453
O          -0.42903241850267   -2.63024969023437   -1.27538484662591
H           0.26970185998003   -1.96331558932497   -1.46024727404004
H          -0.11277091242570   -3.45665338659167   -1.64260537147475
O          -2.07192140985731    2.57588696870225    2.09964505651591
H          -2.56779286389234    2.97470017231508    2.81523037760736
H          -1.65765159547380    1.77821671671019    2.45709592533813
O           0.02349251634653   -2.22216275297082    1.40576940967119
H           0.83270248293687   -1.74688233434973    1.14635715562169
H          -0.50155254893247   -0.76579641243833    2.09551195733347
H          -0.36789106672385   -2.50072629806162    0.56151114470312
N          -0.76775335360145    1.46490597672006   -0.07517381467663
H          -0.68477643747777    0.87771067001624    0.79266291473619
H          -1.29646133239022    2.29891759318625    0.18396470716694
H           0.20968189345118    1.68885675857658   -0.40822707874524
H          -1.22620790509602    0.92553876516755   -0.85182937801839
