    26
        -50.47071297  Gyration_radius:  2.41585724862 Dipole_moment: 4.165
 S           1.04267105088973   -1.73395688250450   -0.12894714782562
O          -0.28716907379307   -2.14604951324993    0.28799163855868
O           1.03069522532654   -1.17752044508754   -1.48367857653304
O           1.71241241470063   -0.86253675836873    0.80608539188834
O           1.90819815625854   -3.05759082603447   -0.20272618295476
H           1.32795417553754   -3.65490176281519   -0.66220123829725
O          -2.13453290839161    1.17544958374214   -0.67405666787599
H          -2.90126897508667    1.55682378889510   -1.10296787035724
O           2.24554315632354    1.08481910116281   -1.04087955804294
H           2.74341669702039    0.76386476440459   -0.28043760271863
H           1.82066536162104    0.26465205460321   -1.38379630706953
O           0.47372616288325    0.88599885903031    2.38807740462458
H          -0.40876656064243    0.44488914336761    2.40481343005162
H           1.06340933291553    0.20540952394406    2.00482814968008
O          -1.74626118371391   -0.38028658653018    1.71762282384008
H          -1.26671873988664   -1.11942078036370    1.29647711292361
H          -2.09422536207456    0.15695619110206    0.99354026941879
O          -1.56154714903612   -1.09039856436178   -1.80849201188028
H          -0.59985570062958   -1.03871270024745   -1.98170561836088
H          -1.58824563653844   -1.69192975941294   -1.04876562411240
H          -1.93333555291234    0.32719951738184   -1.16869359486922
N           0.22210364312407    2.24631456258184    0.20209768305751
H           0.32422907882374    1.77850934229089    1.18317540162785
H          -0.68391888630694    1.93935508814290   -0.20115036456078
H           0.26526997761290    3.25700741857066    0.26738019966839
H           1.02555129596250    1.86605563976495   -0.38359115987651
