    26
        -50.45835404  Gyration_radius:  2.59568138304 Dipole_moment: 7.796
 S           1.35324205766105    0.58699807342757    1.16704236611564
O           1.36622777914449   -0.82085202466227    1.51035051551215
O           2.03943979876465    0.81705582711452   -0.12132042842595
O           0.01963348732203    1.16289959941712    1.13934703556160
O           2.16398522164852    1.36968766969517    2.25266252950956
H           3.04276916456553    0.94184633525157    2.22753336371951
O          -0.98125756893852   -1.24670259485079   -2.00287165577964
H          -0.54075066074048   -1.89144063568019   -2.55737414588430
O          -3.04414095243340    0.50686481528262   -1.34680002845346
H          -2.52016040866609   -0.23692150190325   -1.68082993383855
H          -3.96527390401613    0.26797179608051   -1.46059498706515
O           4.03015263560208   -0.31521169349697    1.41370774451725
H           3.33278000669330   -0.96438756259273    1.58604671626277
H           3.81699596184669    0.04263762814281    0.54243830276648
O          -2.38976852018055   -0.08097131432806    1.33712028977830
H          -2.73893208111954    0.26966982273047    0.50289975570000
H          -1.58744959285835    0.43609316305113    1.51807590818355
O          -0.77421296670641   -2.00940757144380    0.42014425030744
H           0.05502302954542   -1.70012042119254    0.83669253564616
H          -1.47809379692743   -1.48937614246070    0.87006249659629
H          -0.89391162213462   -1.59874858126495   -1.04712006267111
N          -0.07519890932644    1.20991365245484   -1.46781430080849
H          -0.42506170669485    0.28250181676305   -1.82041052875035
H          -0.22194057145133    1.95899179452960   -2.13534871213333
H          -0.52716011187071    1.40312730721110   -0.55304106680257
H           0.94306423130650    1.09788077271545   -1.13059795956995
