    26
        -50.46215054  Gyration_radius:  2.51041867256 Dipole_moment: 3.322
 S           0.74168808997088   -1.75133798407265    0.99414704807461
O          -0.67173902152531   -2.04872648620288    0.84821565336542
O           1.31940088719060   -1.24122780592851   -0.24559938130222
O           1.04214555983004   -0.90510594830491    2.12909438035751
O           1.46223108252908   -3.13378980872285    1.27875956361266
H           1.17173714734403   -3.70849418999620    0.57617535364462
O          -0.22940164895152    2.15090152832341   -2.19881646250342
H          -0.93840553363396    2.44790895189250   -2.76980543298966
O          -2.50767378453346   -1.17354953015497   -0.97724291403838
H          -2.81301380415823   -0.42543246273044   -0.45685708832667
H          -1.96253036141189   -1.69857401940609   -0.36845592168092
O          -1.50880872289053    0.40417260655496    1.47107873760063
H          -1.40347610435752    0.49008061975522    2.42057972775341
H          -1.20288609031302   -0.50122281431164    1.26315199749294
O          -0.11721565932722    2.48474604296738    0.41407554015253
H          -0.21548978325969    2.47587482820676   -0.56901094261228
H          -0.75171404067203    1.82286215748977    0.75629246024445
O          -0.25129887786552   -0.47391353467274   -2.33350730039274
H          -1.13766369869227   -0.74796637452966   -2.02557807048168
H          -0.18656791137821    1.16410145926567   -2.30796347786336
H           0.36795686784652   -0.82149266763377   -1.67007775183559
N           1.99817618723307    1.06821196660211    0.75461623185979
H           2.90148449722324    1.52153502542612    0.83274949299803
H           1.96407066843792    0.36225728678392   -0.00661637550287
H           1.76085356548951    0.46289752182681    1.57909692911700
H           1.16814047988719    1.77528362157674    0.61149799325674
