    26
        -50.45996633  Gyration_radius:  2.52864703765 Dipole_moment: 4.333
 S           0.99743151249430   -1.94464610274866    0.75041263745437
O           0.61472567408361   -2.78147184205778   -0.36555764389534
O           2.32139220437015   -1.34574399445520    0.58384997384948
O           0.01474418119925   -0.94118083334182    1.09938582146787
O           1.10585091826196   -2.91303810129895    2.01094720854959
H           1.66750142518354   -3.61100600247174    1.68805012426366
O           0.18003300505135    0.98723246141268   -2.05918463307203
H           0.44980670345416    1.10153580535839   -2.97116988758757
O          -2.44780393706529   -0.68481969910240    0.32490883704372
H          -1.52690550261066   -0.80932707313474    0.66923453736417
H          -3.03424321098105   -0.97863083947905    1.02276955978278
O          -1.76844793486185    1.90916041650012   -0.21337057352005
H          -1.18720517228214    1.74077285651749   -0.96834778580614
H          -2.16258684326398    1.04165271863261   -0.00485417631577
O           0.00366332721317    2.43971275655828    1.66705118200768
H          -0.01012063852570    3.38975868636267    1.78930559541001
H          -0.75214040931395    2.22858824888562    1.05859956684319
O          -0.93292890056170   -1.32845279024572   -1.92989074629846
H          -0.33999665862380   -1.94173762400760   -1.44060917663020
H          -1.69670149278429   -1.20484197056506   -1.34761374952304
H          -0.24598759349592    0.07100460545245   -2.01652605410195
N           1.76526565648230    1.13018433667323    0.13236447237793
H           1.21504764926285    1.09401620976442   -0.75648959374648
H           2.61107051686638    1.67876604965045    0.01542428093680
H           1.14475406661023    1.55442247595856    0.86819960099136
H           2.01378145383408    0.11808925517790    0.39311061214734
