    26
        -50.46929819  Gyration_radius:  2.49720747467 Dipole_moment: 5.071
 S          -1.65091317524742   -0.48954141458702    1.21235015807462
O          -0.67185581853533   -0.38727695812016    2.27970543078620
O          -1.71475958139997    0.76426007617538    0.45096948774378
O          -1.49529223711820   -1.64206621560468    0.36457592151793
O          -3.05768615700436   -0.62863139021041    1.92301878261313
H          -2.99125220282655    0.03624937469912    2.59945518700040
O           0.35488692859740    0.06247941746335   -2.62020716144099
H          -0.61622551604531   -0.09863069761761   -2.62620750173752
O           2.69821064055660    1.37750397767060    0.53625954484568
H           2.42895906045386    0.62089828923589    1.10295495824614
H           3.34971716758336    1.02902074287588   -0.07586476282152
O           1.83306548363125   -0.80036236082018    1.81376415694479
H           0.86933839980288   -0.64105610723653    2.00276438514825
H           2.19463107785907   -1.18225069580825    2.61511975634812
O          -2.21106827010954   -0.33626121221247   -1.95667928363394
H          -2.17730517531478    0.17535244746947   -1.12845212493811
H          -2.23100726011076   -1.25056593176608   -1.65501692407468
O           0.96956665729412   -1.69449277361404   -0.70106901757709
H           0.71687105181665   -0.67489244665581   -2.08183906235352
H           1.49215247052546   -1.50707667085215    0.08948191411009
H           0.06087563971077   -1.82279495025249   -0.36978976537756
N           0.37664394016523    1.84604264140799   -0.74923556026306
H          -0.42674498613373    1.48889420463017   -0.17153568629849
H           1.27202096758539    1.76518726088546   -0.21200329040286
H           0.42270687362718    1.18446204009610   -1.61494653434582
H           0.20446405063273    2.80554936275054   -1.02757301808841
