    26
        -50.47150080  Gyration_radius:  2.42634872161 Dipole_moment: 3.406
 S          -1.72822981911727   -0.61538676816361   -0.41723538591962
O          -1.94150810801343   -0.32048693556536   -1.82550174973094
O          -0.66430803413231   -1.59160413339930   -0.23370688563321
O          -1.53549956636130    0.57669360330110    0.38396486862052
O          -3.05522247174993   -1.28544177521187    0.11564451763156
H          -3.15058930262448   -2.03676406108742   -0.45996219858208
O           2.35747279393696    0.35977524552064    0.76110078513605
H           3.17453335455155    0.44193489382649    1.25361478419006
O          -1.30756477805965    0.34294409476952    3.02803853111334
H          -1.29558048694234    1.23440667034235    3.37996413989807
H          -1.53268005680060    0.42656286599941    2.07993315795210
O           1.71214088782159   -1.15863058973784   -1.43790771854023
H           2.14901674693798   -0.68985134531002   -0.70247753915911
H           0.90674634611011   -1.54132921323379   -1.03863947579014
O           0.54446770868704    2.15036957192751   -0.23708318913996
H          -0.27260777038232    1.73378245169783    0.10013375289239
H           1.27331930439309    1.65666995664501    0.18427393246355
O           0.71892180842089   -1.18748989682901    2.04031916539682
H           0.19552723245641   -1.48284504731272    1.27147881824242
H           1.75390199938647   -0.22081159439289    1.31556584205160
H           0.08476164572516   -0.70488373504092    2.60113793733598
N           0.32823080015078    0.80070610155716   -2.47094491198478
H           0.45620350997524    1.52109398916626   -1.69469441534784
H           0.99980194856546    0.00132579308257   -2.24462169133239
H          -0.64389203591360    0.40038164001850   -2.35635203409926
H           0.47263633293302    1.18887821754711   -3.39604302754655
