    26
        -50.46173148  Gyration_radius:  2.49827470375 Dipole_moment: 7.269
 S           1.10813379281208    1.98452940966468    0.65153974321762
O           1.32655769853050    1.38627633391051    1.97266152840012
O           1.52953412021335    1.04966210166892   -0.39300898284464
O          -0.22134969467053    2.48608904582215    0.46274226207707
O           2.10312274687637    3.21233684852437    0.57037054693193
H           2.93672370835843    2.79286035120677    0.75478837135933
O          -0.59155541900343   -1.89165272726291   -1.64051736172384
H          -0.90167439090142   -2.37923781329181   -2.40402643837579
O           1.76056054106288   -1.60099770714540   -0.24758410343194
H           1.86661588813875   -0.63955487251917   -0.41112177170243
H           1.05498379183068   -1.88017738009795   -0.85725956274765
O          -1.96025345983993   -1.29667488662997    0.56800060913859
H          -2.76372205757319   -1.81591680556025    0.61801317588005
H          -1.50097116306876   -1.55970357848924   -0.26636809835264
O          -2.33795729003537    1.29036048520043   -0.66377134083484
H          -1.71234536844399    1.89872250384550   -0.22987320008064
H          -2.36313383192815    0.50776774820885   -0.09819063129940
O          -0.32202566301166    0.56422476393821   -2.27622913685265
H          -0.47256068054170   -0.92808909343918   -1.95665642752613
H          -1.13900858236994    0.94069356231453   -1.87851092245696
H           0.40185044369770    0.86117291028202   -1.69009133539193
N           0.42438018706026   -1.01443124349886    1.90962407769601
H           0.75095727933117    0.00946220234569    2.01391086144876
H           0.56556667619613   -1.52418106829244    2.77463405378120
H          -0.56414642531786   -1.04770454661779    1.61176621191665
H           1.02171715258646   -1.40583652410557    1.10515788178082
