    26
        -50.46975376  Gyration_radius:  2.44471679592 Dipole_moment: 3.654
 S          -1.39475191613492   -1.01856087076333    0.77914354820863
O          -1.19499622483796   -0.91574709939515   -0.65361436825761
O          -0.81372431253993   -2.20280303138000    1.36151063009119
O          -0.98014874607827    0.21370294476353    1.45442997125034
O          -2.95795253635196   -1.12387451694477    1.03187695679615
H          -3.03515525499570   -2.04325119540556    1.26141836971892
O           1.73040680179248    1.30078852499142   -1.44672605491003
H           2.17065076858958    2.01967709250074   -1.90066438250868
O           1.81095722040339   -2.12038720653345    0.86079312670412
H           1.77004028712539   -2.13817488129792   -0.12391713898101
H           0.89893806544123   -2.33541864925910    1.14592555190228
O           1.24841687823588   -1.54067117413371   -1.66433425268825
H           0.30484263344485   -1.43674498260569   -1.44813387484421
H           1.57133254970808   -0.64731557257388   -1.83858027665465
O          -2.04217546404753    2.42927153843582    0.43200653827275
H          -1.68407678017598    1.64774566171419    0.90039274495728
H          -2.99612249744867    2.33991382731319    0.45824261326510
O          -0.82224611113826    1.47680347425902   -1.79641058767751
H           0.74638721467019    1.41248035016630   -1.63152746247425
H          -1.05824924174736    0.56639202422954   -1.53274618866201
H          -1.24007951114903    2.03918920767990   -1.11610743772492
N           1.61459966411037    0.44189702892156    1.10552242211303
H           2.15131993595755    0.92626138462796    1.81631239864581
H           1.84742227079950   -0.62195461176136    1.06726532864428
H           0.58409092602211    0.47405137367408    1.31878521442594
H           1.77027337020903    0.85672934872721    0.15913661043804
