    26
        -50.46297829  Gyration_radius:  2.72643621331 Dipole_moment: 3.014
 S          -1.01703158401819   -2.23100956554864    0.57783592532649
O          -0.06731531187090   -2.94310692266245   -0.25578626539352
O          -0.38210499369618   -1.61906512067074    1.73729705746224
O          -1.83553428170390   -1.27314895113871   -0.14996046590501
O          -2.03505417754719   -3.31887809176006    1.13024500198103
H          -1.48452386367078   -4.02727220821426    1.45178201457574
O           1.43278326172863    0.53462764290618   -0.70519476452334
H           1.00621732955355   -0.00307108682734   -1.41682515562835
O           1.20026029327144    3.26194891375579   -0.92787574612942
H           1.37920129291786    2.30543928670908   -0.97402391009486
H           2.01341050891010    3.67467447967421   -0.63367208728969
O          -1.16854643649685    3.48606704442374    0.34296727114692
H          -0.30282902783165    3.54131518476324   -0.11690453751466
H          -1.82304064513314    3.81040028133751   -0.27721289312621
O           0.04881519331773   -1.14715412158116   -2.20782933143282
H          -0.88221914268450   -0.90781082152960   -2.18020518881487
H           0.10374727653986   -1.92421950482331   -1.61432337643695
O           2.10581872135095   -1.51102136882564    0.81884468673512
H           1.26441217366084   -1.54677707307050    1.31940880723433
H           2.04855225338215   -2.26865907745675    0.22789203353582
H           1.89745951065959   -0.13566392710364   -0.14616519160902
N          -0.71771200684484    0.87406805694344    0.81525872141212
H          -0.52793050142582    0.56244462533287    1.76711388142060
H           0.18292207349742    0.81625714309328    0.25076264813470
H          -1.35504865261377    0.14032427342589    0.40231998198663
H          -1.08470925329633    1.84929089881851    0.76425085297568
