    26
        -50.46297840  Gyration_radius:  2.72652099984 Dipole_moment: 3.011
 S          -1.87360729801508   -0.32595564521049   -1.65221456573732
O          -1.28518766093538    1.00134822556980   -1.77045015662626
O          -1.12514987053316   -1.32581957788962   -2.38975176738878
O          -2.11588838798826   -0.68020784955882   -0.26190925222825
O          -3.31189238018756   -0.25462912001348   -2.32409554485250
H          -3.14121289060070   -0.20063076963697   -3.26020315163999
O           1.63507417152983   -0.40173315775722    0.07779559082220
H           1.17891280158796   -1.27740652292827    0.02753632086256
O           2.49226920533446    0.38646902461791    2.56527909548536
H           3.33236806800503    0.83991486004911    2.48323836559635
H           2.30337511008286   -0.00123138200070    1.69176556033216
O           0.02732238512181   -2.47106118301280   -0.28991517826024
H          -0.32848947417159   -2.20424165501927   -1.16246871367996
H          -0.73119880649529   -2.39355979945449    0.29611269257362
O           0.19128721181160    1.56189458780406    3.34074741182739
H           1.08321430469099    1.18764989865587    3.17265598605875
H          -0.16553376840337    1.08032013510999    4.08840726622501
O           1.18442768181247    0.28507052569148   -2.42962081825768
H           0.95799316948220   -0.54537104381009   -2.86044460065342
H           0.31377374525814    0.70361103363345   -2.26678206677913
H           1.69799916718607   -0.11156837317832   -0.86528554336108
N          -0.47267656854826    1.05241718555328    0.78194428847594
H          -1.24995466379099    0.37312989305931    0.55949314662012
H          -0.42779906728252    1.35191882722011    1.78034205534206
H           0.42821489063936    0.54185991274866    0.53579819953488
H          -0.59764108560428    1.82781197980858    0.13202539967267
