    26
        -50.45493805  Gyration_radius:  2.63749998367 Dipole_moment: 5.967
 S           0.28273959559383   -2.49664985046678    0.92870436057217
O           0.72232635309883   -1.92289892483606   -0.32780345704983
O           0.93669622446082   -1.80807133252756    2.05014550239747
O          -1.15352649743324   -2.55930766813890    1.07247829224544
O           0.80539235119732   -3.99485937156181    0.96438055594037
H           1.72442898218294   -3.91473691178382    0.72639321928663
O           1.83391431980004    1.31686742982339   -0.82072592093331
H           2.73977534846439    1.00771689397214   -0.84610830819912
O          -1.78095704334323    1.06460279310978   -1.59315892640249
H          -1.38113573103846    1.85925765594196   -1.20240360191844
H          -2.07315911863640    0.52827673010490   -0.84175526968493
O          -0.23040695599444    3.11744624247856   -0.48166746154633
H          -0.26591838825746    3.87791131619544   -1.06354805149591
H           0.60242361708513    2.65928637288007   -0.67620881060020
O          -2.10896817868513   -0.18742129477095    0.85865122695314
H          -2.89527512716553   -0.16070152123936    1.40643443399008
H          -1.79829238830309   -1.13561696380658    0.87634390433695
O           0.47445238356520   -0.18968381224608   -2.35260064092056
H           0.50484158234074   -0.96254906783892   -1.75883969666692
H          -0.42666216788944    0.19009579394059   -2.25153632137027
H           1.33180519023011    0.74305529290383   -1.50607165605066
N           0.43590909313219    0.61591486236792    1.37524825105633
H          -0.57189325579775    0.53245880364453    1.12962448461301
H           0.99791494244800    0.86672513243562    0.52048189281368
H           0.56328174889803    1.31950527322332    2.09592635583229
H           0.73029314001532   -0.36662385379172    1.71761563278316
