    26
        -50.46928672  Gyration_radius:  2.50254972237 Dipole_moment: 3.656
 S          -1.21013716488767    1.73113904147988   -0.06208910177262
O          -1.81993005990350    1.11603518603018   -1.22479035372090
O          -1.64687177254155    1.13167971377532    1.18370042689238
O           0.24034661671068    1.81446921964345   -0.17776096502862
O          -1.70584693664256    3.23494653078985   -0.02394014896824
H          -2.63163965674583    3.12434915147631    0.16351842281815
O           1.67147609883815   -0.97383112990043    1.81914469084772
H           1.48854650091369   -0.10780912127389    2.25066043587720
O           0.78037463483834    1.47692172085627    2.43081385063898
H           0.72293140850623    1.77793122645536    1.50656582903371
H          -0.14072979538241    1.31862973474583    2.66681421450630
O           1.00270683747752   -2.06002976195664   -2.12371648283983
H           0.05187937626109   -1.81126324908002   -2.09652068145145
H           1.06637332042092   -2.90208913008074   -1.66805954847325
O          -1.55450098542598   -1.39402493894194   -1.74602911546763
H          -1.64378136498631   -0.41829539669232   -1.57209413428084
H          -2.26929892309631   -1.61598044619916   -2.34476571532288
O          -0.83431936402399   -1.41176590424439    0.97655065734919
H          -1.14177048593568   -1.64514858990692    0.09197241010159
H           0.77986801137828   -1.34370851309525    1.64814741623337
H          -1.20551773979860   -0.52555891631448    1.14986218415574
N           2.02247032450820   -0.10085819722286   -0.59061763558131
H           2.93995642640304    0.25097624482443   -0.83954626838053
H           1.70078622738365   -0.83648017739426   -1.26484869825385
H           2.00923284412193   -0.51440941901538    0.41673478885619
H           1.32739563160959    0.68417512124038   -0.56970648776763
