    26
        -50.45493803  Gyration_radius:  2.63754137868 Dipole_moment: 5.966
 S           1.89481928911124    1.75230826862448   -0.71797363119536
O           1.37713587336724    2.50279729243351    0.43448625691714
O           2.01536859734750    0.34791235208744   -0.37974682853281
O           1.14592908532065    2.00029253824185   -1.92839424075074
O           3.36321991008771    2.29637459704708   -0.97661063619173
H           3.85110381770130    1.98612966624883   -0.21932660608775
O           0.14046593523658   -1.35768109060314    1.97699297232418
H           0.87430541033647   -1.32656583299386    2.59124280863992
O          -1.20252083543521    1.00029048200421   -1.66536778515379
H          -1.79162345894201    1.54975167324699   -2.18509225276108
H          -0.28254544000252    1.34153381488289   -1.84730566744685
O          -2.48931293401257   -1.56543187742965    1.16487731134087
H          -2.95670283166600   -2.38036086675796    1.35358095566692
H          -1.62758912690081   -1.63268505684385    1.60564885003822
O          -1.35356896074632   -1.75436172012587   -1.39011568057723
H          -1.28607956195551   -0.84257172950325   -1.70904105231572
H          -1.88816797396801   -1.70510536024877   -0.58029864706721
O           1.05551770173644   -2.14800468082059   -0.25961078910292
H           0.24643408629465   -2.13483803670027   -0.81789515660486
H           1.52688456597598   -1.31730211746105   -0.45594058192477
H           0.52554977456075   -1.75440804740549    1.11361421724467
N          -0.64515865839521    1.02691478820668    0.99491015197879
H          -1.34222214747483    1.43321711750594    1.61108052553143
H          -0.31231122225878    0.10557229441300    1.38185688184572
H          -1.04273702636800    0.89294145290404    0.04256190256833
H           0.20380614105020    1.68328007906915    0.86186669161862
