    26
        -50.45493803  Gyration_radius:  2.637430753 Dipole_moment: 5.968
 S          -1.41860805492823   -0.15545722960693    2.26678234094449
O          -2.52723376566774    0.22894637515994    1.38213180124795
O          -0.59565646523490   -1.15878592379796    1.62080044193783
O          -0.67598178422810    0.98203051682226    2.75874431364302
O          -2.08217581482239   -0.84307922534812    3.53404405645164
H          -2.43735533890164   -1.65535702513926    3.18504271644686
O          -0.19401224737134   -1.59226551238819   -1.78833276689508
H          -0.78735922040837   -2.34347762447211   -1.76774593940855
O           0.57267600885818    2.06390186075401    0.79540552490561
H           0.63177215970045    3.00000192070097    0.99361252529806
H           0.16859433336635    1.64057629759666    1.60376240460763
O           1.17623744536655    0.53743458707954   -2.88618728393650
H           1.80761956548531    0.35639671795411   -3.58385189905713
H           0.72523683659664   -0.30058599225030   -2.69728523700640
O           2.52628575156367    0.52525306899841   -0.43031053751636
H           2.01052860248833    1.10501662441753    0.14892491797879
H           2.15486662552333    0.65257108064475   -1.31905120455527
O           1.48065278970776   -1.89585437275505    0.10053135823260
H           0.84072225075427   -1.70594354192745    0.81129996963727
H           0.51265718466899   -1.78463566111545   -1.07091307533811
H           2.02796520730518   -1.08431636976578    0.00940747796638
N          -1.18735286828882    0.69159344720874   -0.75627802141312
H          -1.66695439498786    1.21113184145149   -1.48477775869399
H          -0.40848789680637    1.25956225197854   -0.36416788065113
H          -1.83851371225839    0.48068313495154    0.08081143473965
H          -0.81612319743972   -0.21534124708610   -1.14239968956842
