    26
        -50.46342128  Gyration_radius:  2.49411066818 Dipole_moment: 5.591
 S          -0.20492551083911   -1.38036519210936   -1.51997129434634
O          -0.29057813971864   -2.11975167370668   -0.26177208309931
O          -1.32128245398458   -0.48756600734895   -1.73397348870515
O           1.08339200320449   -0.72509914528278   -1.65569811523805
O          -0.29569477548361   -2.47567260389222   -2.65946726392013
H          -0.59446885030035   -1.95362376922283   -3.39640849160917
O          -1.35826440698058    0.69115751406709    1.99119337976803
H          -2.01536922340381    0.01595172349430    1.70609929889104
O           2.53184002376776    0.47034795866557    0.08874617445681
H           1.97738796270125    0.03769892681748   -0.62169310326495
H           3.44158441147087    0.31682103041109   -0.17178503115647
O          -2.66898328942231   -1.19857021983470    0.62564447195661
H          -2.90482774815118   -0.70156164342555   -0.16476074788636
H          -1.89119973138042   -1.71527917322850    0.35125388538400
O           1.42041699345624    2.93647683987798   -0.48795679993893
H           1.89528175975706    2.11118832337619   -0.28737886186877
H           1.49144993444642    3.49761205317115    0.28601700262632
O          -1.09714795777236    1.82945997492798   -0.34889658756402
H          -0.25838538122597    2.27117890935972   -0.56967426953893
H          -1.18353936714603    1.06770891499261   -0.94949864597793
H          -1.28811599880621    1.28081422867026    1.19454724983261
N           0.73362662115450   -0.76086449887646    1.74090707401327
H          -0.12496962551646   -0.08677025961479    1.94411630700906
H           0.39039564385901   -1.41065599941893    0.98317753674838
H           1.52870983615903   -0.22989438991313    1.34896118579256
H           1.00366728016294   -1.28074179195443    2.56827121764270
