    26
        -50.47359319  Gyration_radius:  2.46627396319 Dipole_moment: 1.473
 S           0.34797039422071    0.92235400630856   -1.03919963841963
O           0.67495382929206    1.33764882339823    0.31977802170300
O           1.11785337847918   -0.26185852945400   -1.41672851852525
O          -1.08235770993250    0.72467646784082   -1.19996191628584
O           0.74500678415394    2.07671399705221   -2.00846753284737
H           1.72191911490831    2.03559019155019   -2.03632348460774
O          -0.60402472065210    1.53386680312681    2.63532008930758
H          -0.07660592662516    1.68422789293732    1.82345110233969
O          -1.21486242459428   -2.22148709470285    1.12944420819984
H          -0.31561656390940   -1.93449038448860    1.39641423501671
H          -1.13958343428507   -2.38236303474285    0.16189211014642
O           3.22866704976430    1.17155575931332   -2.00041254564768
H           3.60792159196470    0.93060952324236   -2.84865782302577
H           2.63540098617104    0.43774499003563   -1.74006825668943
O          -0.85135210276730   -2.06817905236740   -1.52070289802849
H          -0.03815161970372   -1.52749303675782   -1.53235058242257
H          -1.52579461135475   -1.47731749329971   -1.86605901557504
O           1.18807697353830   -1.03253793632566    1.40376145336441
H          -0.05870272745290    0.96722963839754    3.18706242271375
H           1.75759377997064   -1.47439438860408    0.77015029642830
H           1.05946503171162   -0.13366012242434    1.03696477428051
N          -2.27021996266720    0.14596620827901    1.07925480513299
H          -3.27636470441072    0.25599595180632    1.13254221670665
H          -1.77399672215356    0.71481208874275    1.81131555460135
H          -1.95929849494145   -0.88652772429434    1.17833256203536
H          -1.89789718871260    0.46131645541867    0.14324836008977
