    26
        -50.46590934  Gyration_radius:  2.55422510031 Dipole_moment: 2.217
 S           1.70747525641725   -1.21074930546958    0.54249364608756
O           1.11117494696331   -0.38170354495217    1.58463949841540
O           0.95740731642937   -2.42760168736075    0.30981706141904
O           1.96511454151830   -0.44634237387317   -0.66499989649652
O           3.12969318753375   -1.66322159884016    1.07590918810117
H           2.92768060872150   -2.39544797230029    1.64979269448611
O          -1.91964371574781   -0.03859448760382   -0.73583433770612
H          -1.91509840929881   -0.67707048772145    0.01567518754785
O           1.87436584268239    2.10650825430874   -1.38552186825768
H           1.74195509100010    2.09764639974896   -2.33544888487918
H           2.12042244797109    1.19018870938692   -1.14159101972503
O          -1.37253636999592   -1.65033062159364    1.31251507933408
H          -0.99957934473491   -1.10378670885446    2.01029264248430
H          -0.59347952649599   -2.09894331286575    0.92559363457569
O          -2.77588038208067    2.22333354003523    0.83486341811905
H          -3.65741451810958    2.34932150376262    1.18706055498500
H          -2.83053469906018    1.48783621789298    0.21016747680381
O          -0.06946881019307   -1.37573009476506   -2.12538267372356
H          -0.11629115014136   -2.27358939135957   -1.78438951474018
H          -1.39751736230571   -0.49277556014494   -1.43348813400749
H           0.73964251709800   -1.01188076487295   -1.71875653808313
N          -0.12005393776200    1.58552654516267    0.34096630678931
H          -0.83492294918299    1.00603398871117   -0.19251848137050
H          -0.64004721271345    2.27267313196487    0.88539453302701
H           0.40718195055009    0.90857483814445    0.95133980795117
H           0.56035471092188    2.02012476345751   -0.31858938115090
