    26
        -50.47359312  Gyration_radius:  2.46670031311 Dipole_moment: 1.474
 S          -0.93949553409534   -1.03673259582225    0.31189040964453
O          -1.79061427100367    0.15202621757188    0.30200565385040
O          -0.23671766428182   -1.17769006435640   -0.95788148680975
O          -0.01252903056442   -1.04200102037130    1.43054735786378
O          -1.86100587881960   -2.28005389496639    0.49777695064390
H          -2.59495194235438   -2.12576914980566   -0.13030060037565
O           2.28527605298278   -1.12048118442029   -1.78020258195036
H           1.35109946776383   -1.34700558883432   -1.59108612961738
O          -3.69524535829952   -1.09399535930401   -0.99067832243506
H          -3.10299797995797   -0.40349718933189   -0.62920210634688
H          -4.55634890429556   -0.95497735069210   -0.58993872492561
O           1.59858833595802    2.21608654015906    0.47489826249508
H           1.13607514020594    2.08771112360568   -0.38043402344393
H           0.87561507896959    2.21983939032083    1.14200555775297
O          -0.47920375741692    1.66529089085225    2.07415144370847
H          -0.20895049296231    0.94905546327246    2.65486055943291
H          -1.06268917587443    1.23097444162739    1.42245166396431
O           0.07449554733454    1.38403640176214   -1.58744113938492
H          -0.06290895328809    0.42853283367859   -1.42233910431635
H          -0.78586902545624    1.78279710575375   -1.43959883274623
H           2.24459759795780   -0.40049548350398   -2.41502538091011
N           2.39730398646339   -0.23671465663071    0.73539149619830
H           1.49369132198397   -0.65746831905419    1.08292778457887
H           2.55159535144792   -0.60772615244390   -0.23651111680592
H           2.21130740122247    0.82775841890388    0.66928760458117
H           3.16988265637906   -0.45950083797270    1.35244480535089
