    26
        -50.46590939  Gyration_radius:  2.55416349894 Dipole_moment: 2.222
 S          -0.33626950153214    1.95843080434959    0.85418387212984
O          -0.96179580482980    1.37460591505050    2.02259893671612
O           1.04666609353571    1.52313101953412    0.68958660681608
O          -1.10139309442160    1.77841709922037   -0.36678577655890
O          -0.29583838668483    3.52213496932906    1.10869019902761
H          -0.08077914423417    3.59016291888087    2.03366837377406
O          -0.35554778616962   -2.01390401211676    0.22306748637531
H           0.02097498295115   -1.71793460947365    1.08506133644722
O           0.64192000474678   -0.71674851361445    2.32426144466795
H           1.43969417273616   -0.26970069340875    2.02687813349326
H          -0.02409789431299   -0.00089019234440    2.36898387425686
O           2.17628799145613   -2.78353776312369   -0.92638922501742
H           2.68693248686199   -3.55319250697061   -0.67362950930709
H           1.30745880456011   -2.88108117722203   -0.51436083844752
O          -0.58980434682588    1.10172410840424   -2.88183206161860
H          -0.82091421289376    1.54495761150205   -2.03935679312504
H          -1.40935428526117    0.73239218840075   -3.21641310712746
O          -2.47228368045761   -0.38951465083750    0.37922234047658
H          -1.25627630537044   -1.62138406360053    0.21267090183104
H          -2.56536903081243   -0.20737777156618    1.31876494328403
H          -2.08270280625477    0.42926228969270    0.01837388001330
N           1.02429677760743   -0.27707158108490   -1.23150669518658
H           1.89389959863037   -0.74195258914482   -1.48966877470335
H           0.52583118595906    0.13568820997685   -2.04886899123150
H           0.41288209554233   -1.00441007977139   -0.75351344909318
H           1.17558207548318    0.48779307992770   -0.52368713789841
