    26
        -50.46716921  Gyration_radius:  2.43128308747 Dipole_moment: 8.928
 S           1.32836222062558   -0.65546871870528   -1.06147250829682
O           1.37206084325046    0.78678054687719   -0.72701888652961
O           0.67276689254633   -1.39388482011970    0.00999535829305
O           0.66860352684562   -0.86411584962468   -2.33289112656625
O           2.79209422677702   -1.13748834513513   -1.16722484769351
H           3.19357740767844   -0.77952614277404   -0.33347565128139
O          -1.78747995535751    0.58601111093223    1.87575741742750
H          -2.55819461116358    0.65977757452359    2.43964368671774
O          -1.81394008737019   -0.18820206317451   -2.20755705836113
H          -2.17085556925292   -0.22381376753286   -3.09676560660605
H          -0.86873194935967   -0.50632643170591   -2.28743442957650
O           3.35216404588189    0.21544979374579    0.98837593773854
H           2.78165028842071   -0.04026075575360    1.73367439859066
H           2.82131298193533    0.85725862968943    0.49426023484357
O           1.03572915536872   -0.28433105500843    2.40331164250904
H           0.89717453082028   -0.81203334212089    1.59334152613043
H           0.19825402535643    0.16626060536686    2.54930438785314
O          -1.94778611826696   -1.48807602291967    0.30506236221991
H          -1.87769005072483   -0.28195301370315    1.38597821329549
H          -2.20434245276857   -1.21127551619842   -0.58431300117189
H          -0.98299132252634   -1.65187623677258    0.23736193163796
N          -1.00238782308370    1.67912789404880   -0.44017869051655
H          -1.50603707405088    1.11601733938100   -1.15721882145859
H           0.03875194250760    1.36522995506605   -0.52864544348834
H          -1.09383781145778    2.67509495116273   -0.60706130357702
H          -1.33822725261236    1.41162370044485    0.51519029785516
