    26
        -50.46716921  Gyration_radius:  2.43127088889 Dipole_moment: 8.927
 S          -1.32328607031891   -1.05324591754028    0.67826845851144
O          -0.62236977473526   -0.14860894959834    1.61864255766702
O          -1.31457865225918   -0.48029506403427   -0.66142348109503
O          -0.72497094026388   -2.37119325004560    0.69746486103815
O          -2.78733761842024   -1.15629927162082    1.15994344541802
H          -3.03392281156616   -0.20439136974509    1.29251901262563
O           1.56335562655464    1.69771401257646   -1.31501334997665
H           2.17170917592048    2.13537800919691   -1.91152211646677
O          -2.79677955847441    1.41901441078880    1.55728188219643
H          -1.94519510314210    1.17055611110548    1.94576347153621
H          -2.55592380492180    1.90947398017735    0.75246648297052
O          -1.32196178627552    2.18254929783150   -0.64704262271550
H          -0.40067456778932    2.39106144012385   -0.82978203274221
H          -1.38864698616807    1.21625270343985   -0.77184887269222
O           1.68845923294922   -2.30413319804794   -0.20065611970126
H           2.07959706555342   -3.16645867789329   -0.05005163675610
H           0.74081190301009   -2.38387815138918    0.11009965041302
O           0.77554851599166   -0.59712025463146   -2.26802715667161
H           1.25211797352993   -1.31705831498352   -1.83449427453914
H          -0.10652130943162   -0.59951518724845   -1.83888540753546
H           1.23154218832594    0.88524678450665   -1.79584016265821
N           1.79775801670595    0.16747269089206    0.87088318944527
H           2.00348398316885   -0.77758065059935    0.48429864801650
H           1.81037905973300    0.87318988172492    0.09705060757880
H           0.77362328532521    0.09435384813691    1.23996453960368
H           2.43378296699923    0.41751509688281    1.61994040653063
