    26
        -50.47208638  Gyration_radius:  2.44308904862 Dipole_moment: 2.388
 S          -1.90447689242085    0.68601651321320   -0.39240661218563
O          -1.34014734131000    1.65118339345508    0.54439313752964
O          -1.37046466092641    0.85854168751005   -1.73165838779753
O          -1.81225780613010   -0.67184528400533    0.10488314189182
O          -3.45191284998941    1.00790372753399   -0.50026433123236
H          -3.47112146253012    1.75422000914380   -1.09043633796101
O           2.45959787765916    0.59326807098190    0.29642556969443
H           2.03348283421342    1.18038238456034   -0.36690924158780
O           0.87593873582711    2.15280751826423   -1.19646010094598
H           0.52009330673062    2.78874987169960   -0.57121495543914
H           0.09209501280841    1.65933470707953   -1.51254224921303
O          -0.07132908050970   -1.93175459005224    1.74425922308508
H          -0.86697624877025   -1.68586870503748    1.23954708163824
H           0.60390541423218   -2.12586566792941    1.06896339387712
O          -0.46756166635625   -1.68799640469323   -1.93461954557219
H          -0.51502534681388   -0.85984272072106   -2.42785889834990
H          -1.09126040602163   -1.53213847481809   -1.19915082398098
O           1.66072332241634   -1.94589784045313   -0.42046842841441
H           0.90304078901262   -1.85379956767505   -1.05905769424529
H           2.19690362408570   -2.67090282873836   -0.74369415788500
H           2.33250574272929   -0.31532462289979   -0.02944895273927
N           0.53963015538642    0.60520553070987    2.06793530547428
H           1.41629451855428    0.67335061320218    1.45227664220077
H           0.30231705534123   -0.42876880525471    2.13812941128329
H           0.67461418312975    1.03009972089281    2.97781913486397
H          -0.24860880044062    1.06894175398503    1.54155868598681
