    26
        -50.46877062  Gyration_radius:  2.51434930916 Dipole_moment: 1.679
 S          -1.12406926421431    1.36416639808638    0.77844953452585
O           0.17959169846491    2.01866710300721    0.81670349447457
O          -1.73785417075792    1.43530918340950   -0.53008645102632
O          -1.06700653971442    0.02385895111633    1.33506186463490
O          -2.06491339872771    2.18106131543068    1.75784654737324
H          -2.25575462056651    2.97812605100347    1.27307309929016
O           1.57015658388886   -1.35415918822247   -1.32698902336440
H           0.77041860920624   -1.85424387398322   -1.60034626922133
O           2.51688832252420    1.23508737851567    1.78543531372990
H           1.65505353661862    1.64333484087759    1.55059300027608
H           3.15171437282136    1.59086242754261    1.16010019831671
O          -2.63930648047135   -1.05939202603959   -0.60115876790804
H          -2.44586835273345   -0.12025205992555   -0.78119990265205
H          -2.39185808832482   -1.15302508015400    0.32607091806476
O          -0.78738230645207   -2.48810572620643   -1.88641177361621
H          -1.11145131699557   -2.63611706183386   -2.77538803229677
H          -1.50088983922655   -1.99672824001474   -1.41336933865549
O           0.76456301635834    1.18547321658068   -1.64654671130122
H           1.39093249899679   -0.42184121573324   -1.57961094557184
H          -0.14661548050779    1.20668718451581   -1.95708003099911
H           0.70709243846682    1.59355914997230   -0.76400654178112
N           1.32360903202253   -1.09804247942784    1.23454219070601
H           1.48415811780713   -1.29060614152815    0.17473766630655
H           1.95730833413519   -0.32162196644713    1.53656033403450
H           0.34340860269491   -0.72982190091774    1.33852143157072
H           1.45807466468539   -1.93223622963883    1.79449822508181
