    26
        -50.46877002  Gyration_radius:  2.51425481859 Dipole_moment: 1.663
 S          -1.35432713117808    0.42240484868361   -1.30941125214308
O          -1.36242880306042   -0.99890991479534   -1.58184197372971
O          -2.04694463572513    0.75434590315104   -0.06881528623717
O          -0.03616116524960    1.02998722554933   -1.36521163026891
O          -2.17668340628296    1.10455430210743   -2.47984132041382
H          -2.94089685093369    0.54418992101861   -2.57292182033778
O           1.34783288774664   -0.84322922535226    1.87827052848868
H           1.88092634486221   -1.28626955206353    1.18266900351685
O           2.56977726169884   -1.92556020852031   -0.24139099361644
H           2.08696538417456   -1.66048118270078   -1.06049866196857
H           2.75284255020719   -2.86120323635461   -0.33214888855899
O          -1.36857531425671    2.30605863938941    1.96727674118768
H          -1.74236240879852    1.84757622875682    1.18323063127252
H          -1.72407817229082    1.84645431630371    2.73081101067451
O           1.15986871984232   -1.18824316338534   -2.38410670085650
H           0.22208516973021   -1.35458073405638   -2.17291518275566
H           1.21277862854495   -0.22550828118477   -2.36908692835567
O          -1.15314012925576   -1.45562112376640    1.12330488302546
H           0.43052605179719   -1.16991927736550    1.74778297496693
H          -1.58861694909473   -0.63070110455901    0.84311892698005
H          -1.13477449105609   -1.97861579347162    0.31497046400607
N           1.01574162281760    1.56621198122529    0.99920780031972
H           1.82708185525360    2.17378052516817    1.00861459122882
H           0.67411765084346    1.41069605482568    0.01622852631263
H           1.23736297135868    0.58714562645170    1.42140151383769
H           0.21108236829640    1.98543722495640    1.52130303342433
