    26
        -50.47208651  Gyration_radius:  2.44308328003 Dipole_moment: 2.378
 S          -0.96084361410821   -1.79304520781463    0.33717809501556
O          -1.47950014782283   -1.55789637942429   -0.99860570014613
O           0.45977384110855   -2.12301120796200    0.31645551080961
O          -1.25806795967148   -0.73089457416023    1.27690838740027
O          -1.71873656125088   -3.07653588047318    0.87391466637038
H          -1.75696133913596   -3.63541426955888    0.10460148582864
O           1.84318649889344    1.22506249979320   -1.26170667385344
H           1.45976229159885    0.50484561927579   -1.81001222078646
O           0.75716005221995   -0.99225294568311   -2.29674519261098
H          -0.13080149475119   -1.15871429031906   -1.92043735636609
H           1.30057437406492   -1.70230539801103   -1.94676905833452
O          -2.39843872017308    0.92844856829215   -0.43943045272297
H          -2.33912225239750    0.28643566449468   -1.15743530770220
H          -2.16874358164557    0.39165388635184    0.34364562539418
O           0.16078592768207    1.37456451628866    2.20543906600776
H          -0.48948632241145    0.65577745967879    2.11229579198435
H          -0.01931656502560    1.97407477133682    1.45851106182429
O          -0.34860773188576    2.55656553268568   -0.24968058965887
H          -0.63534417636734    3.45346088205068   -0.42577038475422
H          -1.14501647063141    1.97692483096609   -0.39120380779057
H           1.09975607228829    1.80914587594656   -1.02940680146312
N           1.98458264895010   -0.08285494467041    0.99534513754434
H           1.43291045439278   -0.95700281174045    0.78293833763689
H           2.08656013718713    0.45989664540745    0.07497626611329
H           1.38305043011321    0.51873673030229    1.63295929122237
H           2.88088422876781   -0.30566557308576    1.41203483301179
