    26
        -50.46248952  Gyration_radius:  2.48016842201 Dipole_moment: 4.750
 S           1.67985027696990   -1.06417829381516    0.20811944752540
O           1.75116336661482    0.00603465010454   -0.77971517916973
O           1.72831921061911   -0.52327797382568    1.56543495903865
O           0.55832448146629   -1.94676067674006    0.02522340836574
O           2.99658342401055   -1.92146020031465    0.01787327415144
H           3.68144081799572   -1.26774623668563    0.11576959217041
O          -2.20140537546400   -0.01497774790790   -0.21975848795318
H          -3.15712888791745   -0.00661517311279   -0.28087863560311
O           0.42408536396202    0.01928993192496   -3.10756683409364
H           0.16047498951152    0.94105139212285   -3.15334821794866
H           1.02232760715739   -0.04320043847499   -2.33693803892738
O          -0.27271879484815    2.46899827342151    2.13789577679774
H          -0.23658638096283    2.43282800782573    1.14586707809651
H           0.63388662866718    2.59508262870882    2.42456761208046
O          -0.15198566535102    1.87091490347046   -0.42600016907131
H          -0.94492091903576    1.31918380050172   -0.51173315068085
H           0.60657183878748    1.26519326699486   -0.54530071629771
O          -1.26866915706048   -1.70841130367481   -1.89694982620119
H          -0.75616959153569   -1.17199791154044   -2.53562882804060
H          -0.59844434904425   -2.04062794719884   -1.26939696625639
H          -1.88177905353108   -0.69695351052819   -0.90075586058740
N          -0.77636860851804   -0.12153801651061    2.08140157304133
H          -0.71231565739690    0.91743431674579    2.28613422739558
H           0.23292071888982   -0.41904607432672    1.89210593149512
H          -1.17141431423796   -0.64917637230018    2.85188670905884
H          -1.34604195977234   -0.24004328485309    1.21169132161043
