    26
        -50.45472192  Gyration_radius:  2.51424504975 Dipole_moment: 7.537
 S           0.27805506720114   -2.03386385571376    0.50842388862303
O           0.89096983878025   -0.93831568321573    1.26868232396834
O          -1.13242994542551   -2.16948235687141    0.71755131602145
O           0.69703432448059   -1.96776977210370   -0.89018895848268
O           0.94482574194686   -3.36363795852478    1.07795687874427
H           0.24060763743641   -3.75692338013459    1.58372604028271
O           0.95452010799083    1.87064676134359   -1.29394106636533
H           0.97462123463966    2.55630266232851   -1.96214654486098
O          -2.70419732665549   -0.15445491182936   -0.29225805933656
H          -2.32653900917000   -0.94378668873442    0.12805675620040
H          -2.74660398477394    0.52274450700323    0.41020289565856
O           0.19352461928493    1.71066977791539    1.43390201418399
H           0.41686309925133    1.91780107202532    0.51533880824931
H           0.36633545414112    0.76189058967812    1.54526342570841
O          -2.49673444758266    1.79174952805405    1.61747480882299
H          -1.51660015046032    1.79625717243783    1.66704704969763
H          -2.76407207629332    2.69180173091424    1.42744049611573
O          -0.72464968728383    0.08366089965565   -1.98436035207407
H          -0.30273209220309   -0.76133493250540   -1.75816831593593
H          -1.56117644327825    0.08975795363483   -1.44590677602093
H           0.23112368825448    1.21419395921400   -1.58529217252546
N           2.47536417258588   -0.16360334574367   -0.55462149863716
H           2.08179436992283    0.74278605181161   -0.91735527913694
H           1.98261671927947   -0.95947928387583   -1.03902308011843
H           3.48703157572340   -0.21136379177431   -0.59113131033467
H           2.06044753235638   -0.32624669505001    0.41332670154960
