    26
        -50.47208627  Gyration_radius:  2.44293634357 Dipole_moment: 2.393
 S           1.38821193583355    0.67314568645125    1.36727302160374
O           2.04523694575120    1.18115702230217    0.17615555182965
O           0.16854669652381    1.41341155005026    1.67068198043996
O           1.16467117440550   -0.75833410421402    1.34783562366797
O           2.39273031745334    0.94244531076690    2.56235089847875
H           2.73467476795368    1.80711427677954    2.35966431650562
O          -1.86511793611538    0.61613267514797   -1.62234422437158
H          -1.18428146956898    1.32423857210486   -1.58361271338506
O           2.03350029870542   -1.20212868378971   -1.11159585985643
H           2.30876265965010   -0.28352535942457   -1.21980581920885
H           1.84068942949225   -1.25361687325843   -0.15545202434431
O          -0.98074389573023   -2.29099141059220    0.75260086627264
H          -0.85998756841806   -2.28870730155663   -0.21441278336585
H          -0.13481889697581   -1.96860330468505    1.11140046700452
O           0.02243996479411    2.41210046668291   -1.00695676457608
H          -0.32968140050774    2.86355836597230   -0.23618267418338
H           0.83364398056643    1.97259990775686   -0.68042422653946
O          -0.41722021267671   -1.71347006637133   -1.89960896117620
H          -1.39410026047983   -0.19386996968585   -1.88663404205397
H          -0.39431270229271   -2.31544421106724   -2.64437621304946
H           0.53108072440179   -1.50762595304535   -1.67884282911168
N          -2.00964275377522    0.12152901104701    0.93867461984629
H          -1.18594640771810    0.66088754186509    1.31817257230806
H          -1.75159818832237   -0.90925435963137    0.97567276278798
H          -2.85417093075325    0.32428728971815    1.46049408267191
H          -2.10256629213113    0.37296392058494   -0.10072763825043
