    26
        -50.46379201  Gyration_radius:  2.52774482922 Dipole_moment: 3.679
 S           0.22109995853771   -0.66215943393511   -0.28734365657157
O           0.13050881633447   -0.93827641222585   -1.69876844540839
O           0.75773137174093    0.71371895375946   -0.06678740430940
O          -1.25348507487638   -0.59010075539336    0.22574039506120
O           0.95058601641910   -1.63174968424082    0.48936226093226
O          -0.12601596549904   -3.07838967620478    2.44398531181341
H           0.36384882751813   -2.64064134467779    1.71656239826429
H          -0.55322985994190   -3.84244919717999    2.05488648772947
O           1.86875531891762    1.55506299201197   -2.39772545901144
H           2.49615224340342    0.89408473418794   -2.69526595694258
H           1.58615679643364    1.27020598387964   -1.50807119928633
O           1.37024339324861    0.31872668497662    2.51144646133430
H           1.25860790546446    0.57495642018041    1.57794602415817
H           1.84052558276913   -0.51949171627236    2.48190484028261
O          -0.59697625026266    0.99823836012464   -3.30372035601750
H          -0.43696085409909    0.10791084534282   -2.91151370957383
H          -1.16760756268866    1.59124602471929   -2.06568945129484
H           0.30133843211155    1.38932606698132   -3.30270934612611
O          -1.11920363372822   -0.60125649802966    2.73972474168995
H          -0.25393199092588   -0.14611265255300    2.86501535577449
H          -1.24622610202563   -0.59687662350816    1.25904176591206
H          -0.92111317173524   -1.54856966461898    2.88681811646769
N          -1.35979132394001    1.83290075992803   -1.00569297420182
H          -1.58997462011860    2.80866590507821   -0.84704203337279
H          -0.44757191114866    1.53789702250771   -0.52538094726837
H          -2.07346633191119    1.20313292515956   -0.63672322003309
