    26
        -50.45472201  Gyration_radius:  2.51437997816 Dipole_moment: 7.535
 S          -0.50695828774264   -1.88684887844852    0.80926781408287
O          -0.58773263023833   -2.42685518783506   -0.51490807253177
O           0.76508283175087   -1.21782488115818    1.10485823629726
O          -1.62510100475084   -1.03088322389372    1.20158217013961
O          -0.56848311006659   -3.12980651240227    1.80342469367035
H          -0.43345707326224   -3.87337758244932    1.22465188537074
O          -0.07878521799695    2.42752910239039    0.42564054018702
H          -0.32129820734494    3.34001614961679    0.26568995803637
O          -0.69912118239519   -0.59859577072410   -2.56319622112601
H           0.22991865661182   -0.39837160513958   -2.78821858371625
H          -0.66640464136372   -1.38160435348979   -1.99037157048394
O           1.92194741764271    0.10829711221304   -2.89272472766553
H           2.15251889719291    0.89496041504041   -3.38831667059655
H           2.10250610619683    0.30981013590290   -1.94940351982386
O           2.09467712909939    0.74558187100948   -0.27686678432895
H           1.43244569549732    1.43197553689842   -0.11299419939996
H           1.75521395656190   -0.06126799945972    0.14284371239343
O          -1.77384683398388    0.90352391058284   -0.71176348251531
H          -0.74886212256576    1.86233010433776   -0.09461010546043
H          -1.42088851003223    0.44646227192497   -1.52180654823843
H          -1.92898975525526    0.18201903340879   -0.08042595485172
N          -0.21578902047891    0.70907372905385    2.43211230138018
H          -0.14414819346466    1.55661131644074    1.81198308319487
H           0.48536820532493   -0.00816894530976    2.07321677077224
H          -0.13277914013853    0.91920219872995    3.42005081049265
H          -1.08703395750298    0.17621207086119    2.17028448448213
