    26
        -50.46147048  Gyration_radius:  2.59226595056 Dipole_moment: 4.220
 S           0.64002836254898    0.22190277020184   -0.31047601460169
O           1.32677730752246   -0.43992843043125   -1.39337875220019
O           1.16154111384072    1.56890261039216   -0.02063349552684
O          -0.80618293866383    0.27346492873447   -0.47279472526360
O           0.90522605191495   -0.57299874894262    1.02073219946002
O          -0.34845904895553   -3.87809519670831   -0.88081440587091
H          -0.65088923327844   -3.11463897359095   -1.42963181287347
H          -0.30388193704395   -4.63108352694989   -1.47193070514346
O          -0.85729156810824   -1.69107759923310   -2.31646795643507
H          -1.31225863197661   -1.07224734359149   -1.72700559864303
H           0.04597490407864   -1.33303792367116   -2.32607909573401
O          -0.64077962530491    3.52705923781394   -0.47676823018340
H           0.09216175314362    2.88364451830186   -0.40231559517869
H          -0.87249039560556    3.55583973887803   -1.40623064320060
O           1.87728770122641   -2.67888491093455   -0.00942674018675
H           2.02228488827516   -2.11660046989938   -0.78574511740220
H           1.29601257606842   -1.46539041922170    0.74402789723942
H           1.09588722850081   -3.23859847739988   -0.22850058278164
O          -2.04160893698155    1.91782911026487    1.15685523922145
H          -1.79354076930980    1.18431660968479    0.54594501218441
H          -0.83082168705029    1.82244809493714    2.02448218441712
H          -1.82339293580591    2.71485003441201    0.63143931293967
N           0.20974080937276    1.68883594529587    2.36065544307639
H           0.34489159216796    0.74419505392146    2.71778352041185
H           0.51042094905698    2.39515160690124    3.02454311720612
H           0.75336246039923    1.73414177090461    1.43173556504641
