    26
        -50.46600688  Gyration_radius:  2.60639313846 Dipole_moment: 3.835
 S          -0.04924831139809    1.36108096518267   -1.24205937023117
O          -0.67780682124022    1.98195197742031   -0.08378843443308
O           1.41186403829744    1.33798212111005   -1.08855217085430
O          -0.56650770470347    0.03470699459585   -1.52092500926923
O          -0.36791853436878    2.24679508817670   -2.49155432860848
H           0.01130591570125    3.11529366419095   -2.25208998564584
O          -0.73997395286220   -3.36316001108351    0.71970491573275
H          -1.29021934556851   -4.04378721608229    1.10783679845772
O           0.97202002658409   -1.64907043154648    1.81999819195897
H           0.37810922781589   -2.40181418178074    1.60268507495915
H           0.37731385777866   -0.89649474481210    2.00201354265186
O           0.89496810535318    4.02115903080526   -0.98211328544658
H           0.24031498195813    3.73709671771798   -0.32961230346870
H           1.57791960928759    3.33758431763447   -0.95217746439443
O          -0.83532438238356    0.40099941743637    1.97800181905874
H          -0.76593491228664    1.01348551261354    1.20260603114810
H          -1.01452470257857    0.95731900843931    2.73777329460764
O          -2.22329299672765   -1.24292598519631    0.18515014960757
H          -1.79128237509850   -0.78953468303260   -0.56127459603788
H          -1.35671073831015   -2.63710919402068    0.44367684245515
H          -2.01193040028140   -0.69446726123535    0.95456903675049
N           1.59785585928288   -1.19524345908617   -0.65714889891113
H           1.45440004256826   -1.40282926971057    0.39974838763731
H           1.80170697699834   -0.16199602167314   -0.78938327990790
H           2.29468443639124   -1.79853413696538   -1.08020351474296
H           0.67821208979390   -1.26848821910109   -1.12288143307367
