    26
        -50.46245801  Gyration_radius:  2.53031524563 Dipole_moment: 4.455
 S           0.26426237138033    2.22870143711488   -0.10672997000010
O           0.05928622558243    1.43038278103540    1.11084767296018
O           1.54896209397406    2.89265782686505   -0.09904571965546
O           0.01861960087324    1.43668010900526   -1.28967237933622
O          -0.84381665782199    3.36133506602676   -0.07485994341712
H          -0.52002111629635    3.98868973061996    0.56517538458033
O          -0.35465797688433   -2.23794180944213   -1.05065125064569
H          -0.17244537172741   -2.54380953221877   -1.93940137153751
O          -2.08867876508451   -0.15750109298855    1.50978716877595
H          -1.41358843418472    0.54262258913048    1.51147847798924
H          -1.61486934174657   -0.96758909790846    1.75748571550725
O          -0.64033251704349   -2.57993169514390    1.68153001047579
H          -0.63414663105550   -2.67613306979298    0.71625398812127
H          -1.23951874404115   -3.24666071394172    2.02005160817570
O           2.77433847605466    0.88597006348575   -1.25865971103563
H           2.24931734666840    0.88948903548305   -2.06486222627083
H           2.51007102959055    1.72107693350689   -0.80694071849515
O          -2.00527485487971   -0.30247541242698   -1.16449165108238
H          -2.26650683692428   -0.21838859975805   -0.21948953044523
H          -1.37009458091869    0.42565668771422   -1.31926667516591
H          -1.07153649352563   -1.51485064254967   -1.14569167937296
N           1.37528491470388   -0.69458940821186    0.34213907985005
H           0.75221926901007   -1.31694010562058   -0.22923270345072
H           1.82113763781638   -1.23240991108297    1.07924481469326
H           2.06951506196664   -0.20016258127443   -0.28727104629454
H           0.79247428451737    0.08612142237387    0.76227264507497
