    26
        -50.46085883  Gyration_radius:  2.53235931984 Dipole_moment: 4.715
 S           1.61612913775784   -1.26685304633971    0.37863014290218
O           1.65982738495651   -2.37034560544804    1.31585826388793
O           0.62774813809797   -1.52101471966596   -0.68391422756718
O           1.39814249524169    0.01505237416024    1.00343842511553
O           3.02325354193442   -1.20813840918478   -0.34000493435137
H           3.21187687563443   -2.11908479042076   -0.54603605673884
O          -2.15809300147137    1.14109476010799   -0.15660422717122
H          -2.84862792769743    1.73903032435141    0.13087327431811
O           0.90210237115259    2.49211661128131   -2.25373437761753
H           0.59394200170027    3.10333403664530   -2.92371418323261
H           0.46087642157834    1.63219903549020   -2.43740654699858
O          -0.06635256869666   -1.26502660498813    2.95052131159502
H           0.61579006869934   -1.83530411532192    2.52697910237836
H           0.34233370696767   -0.39230117521800    2.95246006297123
O          -0.54993195603595    0.23931382684526   -2.39345783496518
H          -1.26698171882831    0.51517069818532   -1.80814675532598
H          -0.04123906860274   -0.42560807149172   -1.89615300579684
O           0.09482384324237    2.25014498917952    0.32040695565962
H           0.47204628538862    2.49647925156436   -0.54860709849749
H          -1.27796778312180    1.61655945311984    0.04242816854463
H           0.65101578333328    1.50771369561858    0.62633932617138
N          -1.52409668786978   -1.27884475990601    0.75341325562075
H          -1.08989821887405   -1.25223247909307    1.72527556896461
H          -1.90262420931346   -0.33488285129074    0.48144070506035
H          -0.70940417562253   -1.47890975090889    0.09604124681704
H          -2.23469072953412   -1.99966267727519    0.68367344825427
