    26
        -50.46085904  Gyration_radius:  2.53240685647 Dipole_moment: 4.718
 S           2.01095311548753    0.50600860216029    0.25467587070663
O           2.80543272732679    1.37262948410919   -0.59135494221757
O           0.90815987817322    1.25463129989860    0.88221630183401
O           1.52847308090674   -0.67564381469405   -0.41746011444527
O           2.94258091992097    0.02767387701168    1.43921990788582
H           3.39479642094008    0.82194048918100    1.70844704861828
O          -2.34645688019619   -0.21604980091027   -0.65768369403046
H          -3.07600192391452   -0.54546198290994   -1.18334312717460
O          -1.37768129191807    0.31397933523474    2.02187377239176
H          -1.89928488886239    0.24963646542104    1.21147319858855
H          -0.51037421114693    0.66546930467031    1.75286755795494
O          -0.99313085266737   -2.31556648288954    2.39917863044128
H          -1.08774387407778   -1.33651941674413    2.41776824568700
H          -1.72558199739626   -2.66835910584458    2.90565764774957
O           1.45041550998311    0.77520743820386   -2.75457454408957
H           1.45100866044322   -0.17814850424404   -2.61341057826509
H           2.11485719779078    1.10217390848315   -2.10512550036377
O          -0.70660609751378   -2.14177087889863   -0.28881582612939
H          -1.71856413333893   -1.00889678805534   -0.52580500601428
H           0.16732016901808   -1.71128467138192   -0.35976780762718
H          -0.78031267637204   -2.39138932375569    0.65478186467207
N          -0.53188740720167    1.64037266611641   -1.24678751185396
H          -0.87244530855394    2.57710082020258   -1.43627109961230
H           0.15775100835626    1.31801809114631   -1.99138074428343
H           0.01800774130708    1.60967546330458   -0.33432182873147
H          -1.32368488649729    0.95457350518262   -1.14205771169333
