    26
        -50.46862995  Gyration_radius:  2.50074563263 Dipole_moment: 2.836
 S          -1.10562596902590   -1.73021206563306   -0.71921407437484
O          -1.20227693242755   -0.78722971025932   -1.82098127266192
O           0.06966163342344   -2.56729139510486   -0.78725506253443
O          -1.26587430537877   -1.09441799941414    0.58586938382299
O          -2.36266768379272   -2.69355097540319   -0.84746522600982
H          -2.17801290811103   -3.18918055245463   -1.63905625378979
O           2.40933116381676   -1.43316729683428   -0.26484224107798
H           1.70102913668698   -2.05043149639748   -0.54418057313149
O          -2.47014352740282    1.05921382811636   -0.41161246715068
H          -2.32497460211530    0.41028306447704    0.29433302168794
H          -2.17746344340301    0.56096947917727   -1.19731506210988
O          -0.47174611724878    2.72628186911487   -0.13746871300243
H          -1.27082943580337    2.13101030979578   -0.20713761433986
H          -0.78219644279197    3.61116807678476   -0.33228771330255
O           1.36481689452128    2.04240057418944    1.70012912730267
H           0.62894018913355    2.34409179015276    1.12611290348980
H           2.16482204056025    2.19098935064337    1.19071739061546
O           1.02870593392092    0.63301556355564   -1.31106820310459
H           0.63133149652177    1.46393586310716   -1.01611958050230
H           2.22817232499824   -0.63418052232794   -0.79243654967203
H           0.28361252822173    0.10032561670941   -1.64011288632440
N           1.02511162855446   -0.62079631813475    1.78577973346423
H           1.14010841474838    0.42136950219573    1.85946630614878
H           0.06867778254027   -0.83146712073590    1.39137259456200
H           1.71914482209244   -0.99167050622606    1.04951046634358
H           1.14834536777748   -1.07145894917547    2.68526254566460
