    26
        -50.45602544  Gyration_radius:  2.61244409653 Dipole_moment: 5.407
 S           0.15901194711219   -2.43866273410072   -0.86709193214177
O          -1.27723044450199   -2.64009118538386   -0.75601655333250
O           0.51904261771166   -1.82735695324406   -2.15199593954372
O           0.73146639403903   -1.71260621412059    0.23738670880811
O           0.81197116107449   -3.88695341597886   -0.86839421922758
H           0.31419654274076   -4.35507784078593   -1.53293985008558
O           2.02702360038216    1.22095350285764    0.54202675621690
H           2.85527254506044    0.76248794006580    0.39475036743290
O          -2.15380132932283   -0.24103373275367   -0.48047301143631
H          -3.02534558661470   -0.23020283444364   -0.88010729989388
H          -1.85235243165191   -1.19200574402785   -0.51266219949305
O           0.02094980957720    3.12251771373308    0.36515794708853
H           0.07255856416875    3.90915884041776    0.90996711296435
H           0.85572851469810    2.64541851265961    0.49058319365722
O          -1.47363593993387    1.21379105444012    1.78536493443216
H          -1.09241510648201    1.95534482563273    1.28731998031916
H          -1.85651412812784    0.62174139610017    1.12133098781025
O           0.81280987448360   -0.08829785800921    2.37084713096922
H           0.74088549019830   -0.87101786836843    1.79761019495925
H           1.59936379692586    0.73924890175672    1.33297666961408
H          -0.07450404232888    0.33247975266613    2.35562999531289
N           0.26178102410687    0.61675414273709   -1.40066264164129
H           0.96033650296225    0.81284589272914   -0.63334693822493
H          -0.69066942795641    0.52972677629904   -0.99447061628440
H           0.28575046497222    1.35503857369044   -2.09718914324727
H           0.46831960671753   -0.35420144457507   -1.81560162503635
