    26
        -50.46862992  Gyration_radius:  2.50063547642 Dipole_moment: 2.828
 S           0.48259194502116   -0.02840831407290   -2.12084944127149
O           1.34142677550356   -1.18396931149661   -2.00332328563385
O          -0.93213953126194   -0.36036169015524   -2.09333641580570
O           0.83449151433862    1.02917603587512   -1.17697462939404
O           0.76208676180118    0.60721592700380   -3.54992610312263
H           0.65199360011374   -0.12983929382625   -4.14233111990721
O           1.47771009845699   -2.36929777853287    0.36517036964885
H           1.55368155775035   -2.15288470029237   -0.58778406899094
O          -1.66432842085724    1.92062927316512   -0.96840442577034
H          -1.74378471561576    1.10394258448070   -1.49553243698076
H          -0.70410447474996    2.05672961493790   -0.96576687659304
O          -2.16061398939753    0.98712881289364    1.42553115132768
H          -1.98712874578964    1.40280613622435    0.53406247564516
H          -3.00206981404816    1.33585019431572    1.72177501467776
O          -0.00291462985557    0.48821867224714    2.94701696284587
H          -0.23315269528678   -0.38630139590026    3.26914042496218
H          -0.78158780945715    0.79175754896654    2.43384105931990
O          -1.03641452743162   -1.39519380897539    0.39091814023499
H          -1.06283748247713   -1.15868702598401   -0.55277253168605
H           0.51696157730008   -2.33500732951152    0.52440174752469
H          -1.54161811234245   -0.70143573655910    0.83687771280454
N           1.86948165431313    0.10998043415072    1.05832191036742
H           1.51581138276669    0.55330463061969    0.16777894393268
H           2.80753790504173    0.43063169612041    1.26953974528115
H           1.20203350894501    0.33534656897231    1.83830916348336
H           1.83688669744707   -0.95133174483101    0.87431652310864
