    26
        -50.46248956  Gyration_radius:  2.48012146686 Dipole_moment: 4.748
 S          -0.57014116709141   -1.91432701619770   -0.09027006973427
O          -0.84619510661733   -1.78845263673470    1.33984199370602
O          -1.39655932669126   -0.99294280701171   -0.86126116848628
O           0.83636791992392   -1.80606115298547   -0.37348715235474
O          -1.03017481650340   -3.36889888158359   -0.51130556913363
H          -1.96455330740323   -3.34748340548748   -0.33140242882529
O           1.66203710636912    1.45745333379058   -0.09584080256500
H           2.37647638174181    2.09523212958277   -0.10106987529470
O          -1.12863559496952    1.55754893202203   -0.05619394107075
H          -1.32238660285920    0.63874006822461   -0.32972802601815
H          -0.17740649519045    1.67963918652038   -0.20030473047994
O          -1.21476289341435    1.61944690034150    2.57723950650068
H          -1.29960450820049    1.74672912790697    1.59576456278900
H          -1.96049354383692    1.07254995586509    2.83182439565208
O          -0.58688045631815    0.29603262466687   -3.06658848285201
H          -0.93794197930056   -0.27687757667453   -2.35654560630266
H          -0.98608966444552    1.15688547807480   -2.92237006316396
O           1.91249944711655   -0.09979086166649   -2.11144410041289
H           1.80513632739504    0.86773743472369   -0.90996621807982
H           1.66971470943839   -0.89278927718875   -1.59610030897761
H           1.12498854388977    0.07863142277358   -2.66488709549787
N           0.83708631086631    0.04123820032678    2.06085444428612
H           1.54045971718193   -0.23100381755651    2.73855464591803
H           0.24800425340702   -0.79970926705916    1.76285459924000
H           0.13385991107568    0.73126424021260    2.45428352197429
H           1.27519485397568    0.47920766490169    1.21754794925232
