    26
        -50.46237385  Gyration_radius:  2.72456443527 Dipole_moment: 4.983
 S           0.96690365140801    2.25840032131279   -0.68896470953213
O           1.34403714609223    1.94471551310198    0.68359268067563
O           1.22877682771554    1.10532443231193   -1.55554575973120
O          -0.36693572066733    2.78457400895268   -0.82558574744554
O           1.94848519468699    3.40901367114229   -1.17095919529843
H           2.81938357740924    3.10622981165552   -0.93027118193871
O          -1.57459589555751   -0.48615984418207    0.53498817190721
H          -1.74116858326727   -0.15796857048117   -0.38216497335363
O          -1.35802523777377   -3.20903648454279    0.82763259367320
H          -1.74496910179933   -3.47231231013163    1.66371859709096
H          -1.59219944608687   -2.27214844868070    0.69995090870247
O          -1.54447994456424    0.64631623176865   -1.85706190349239
H          -1.28047688360334    1.53702542784415   -1.54774063955538
H          -0.78338881910447    0.34850155139895   -2.36372315166201
O           1.25880726049347   -3.38761328797962    0.19827081578252
H           1.34427185252771   -3.89105607223493   -0.61251843614039
H           0.31631389498815   -3.45523984670998    0.46470790230337
O          -1.12898045772946    1.84991727756130    1.68391530860874
H          -0.17232545822260    1.92222314334774    1.49319814858545
H          -1.52462708981925    2.49191238551791    1.08550742637742
H          -1.57866612023361    0.32894033612347    1.09518216936986
N           1.05692445988891   -0.70307333860925    0.30511274850543
H           1.36231106360270   -1.69638000419890    0.21969371035463
H           0.00427058362005   -0.68312762152978    0.46541504223012
H           1.51271709372160   -0.20781719048157    1.07038324106920
H           1.22763617230258   -0.11116108226255   -0.55673376707845
