    26
        -50.46237387  Gyration_radius:  2.72455736127 Dipole_moment: 4.984
 S           0.07668234407336   -2.32841031829951   -1.04008429013155
O           1.40689413826399   -1.73246408993081   -1.03603400173910
O          -0.53917470137482   -2.18645200673493    0.28265616567467
O          -0.76721815132345   -1.87329751004093   -2.11496897139156
O           0.28462480635025   -3.88537141602533   -1.26917863424492
H           0.96277390190056   -4.13701626989242   -0.64883619509638
O          -0.47142709292289    1.54672166656143   -0.62317965620223
H          -1.30684372555070    1.02132386132553   -0.67398953455810
O          -2.37555926705816   -0.28887857919870   -0.72730344366723
H          -2.37580717513051   -0.82305773413349    0.07225143856012
H          -1.93277199915310   -0.86177937508074   -1.38644154537634
O          -0.22282739207190    3.22789100614173    1.53513981907262
H          -0.42083904235284    2.73797790482170    0.71680927391263
H           0.23545213595523    4.02574544146790    1.26785706357323
O           0.72963030977191    1.38791683704040    3.26244572625927
H           0.41390896148384    2.15085792533669    2.73136174464621
H           0.08785581817511    1.26623144008645    3.96349397311138
O           0.82799496345664    0.35809907798314   -2.59149467626332
H           0.02303941668830    1.30727939052821   -1.44562537227387
H           1.21522059105226   -0.38097640409592   -2.08097540633752
H           0.13910979871599   -0.06758732347878   -3.11209350615094
N           0.81811169967911   -0.09210782649778    1.01287582205868
H           0.87807689164172    0.28816742936331    1.98191961575244
H           0.23019099472780   -0.96803090911449    0.91609116980620
H           0.35562037204791    0.63663374129480    0.38911107338976
H           1.72728139293060   -0.32941595941020    0.61819235758494
