    26
        -50.46309147  Gyration_radius:  2.44660697236 Dipole_moment: 4.787
 S           1.65515596042099   -1.08149829878005   -0.14687495199144
O           1.58407242983817   -2.36041687166424   -0.79274179672773
O           1.24338315254005    0.03224104381348   -1.01505005021415
O           1.02522431031057   -0.98554398954674    1.15187303540515
O           3.21161950299751   -0.80531295869945    0.14012666770552
H           3.66089587811332   -1.29859337420570   -0.53963783762041
O          -1.72917515271606   -0.48595999311840    1.24762544534800
H          -1.23319327597906   -0.87372575573616    1.97380499525466
O          -2.65399137060088    1.43628618793688   -0.64683627700043
H          -2.65791914750262    0.73202924519130    0.01661551851982
H          -3.51751570009859    1.42308520472309   -1.06294084912864
O          -1.03482757572480    0.05410716987192   -2.53729683336402
H          -1.54408182995703    0.67990227598799   -2.00020111420034
H          -0.11766727316922    0.11014145679597   -2.22597324899431
O           1.99187144082186    1.21340735964405    2.22492696378141
H           1.71181657415105    0.30181690038834    1.98640712348172
H           2.90317158731612    1.27810786666579    1.93439741355900
O          -1.11072193496200   -2.00326233605472   -0.78594753820200
H          -1.19691515292186   -1.43373493507661   -1.57883411858949
H          -0.18866104173637   -2.30560398441938   -0.77787272622382
H          -1.54290819398689   -1.10984193174984    0.48727614953093
N          -0.10365717813313    1.53975137558588    0.59390143210566
H           0.58659506257459    1.77080738779183    1.33423532113256
H          -0.77431561187365    0.80227731088855    0.95180593814292
H          -0.61894256738025    2.33625779704154    0.23025588148896
H           0.45068710769723    1.03327585666339   -0.16304454319352
