    26
        -50.46862993  Gyration_radius:  2.50065413903 Dipole_moment: 2.832
 S          -0.70406695104708    2.04568766248529    0.22813296956531
O           0.65801841520184    2.09956702440683    0.73231411064586
O          -0.79378864498320    2.27161692688086   -1.19575595315151
O          -1.41703674446404    0.84310505760813    0.65067643186861
O          -1.48556038142029    3.23697706836923    0.93141013249690
H          -1.09284652552985    4.01381393265734    0.54598067929412
O           0.07132149425662    0.34050322095886   -2.79426824178066
H          -0.24822681493632    1.19279964816859   -2.43052814282380
O           0.18316153688861   -2.96336511559756   -0.32467483886481
H           0.59733889516509   -2.56547273923257    0.47036053441991
H           0.88566456164515   -3.02520995682953   -0.97600477533243
O           1.49652866222761   -1.66882446230064    1.62911295233221
H           0.99906107449801   -0.93091847089099    2.08268202626575
H           2.05799034717480   -2.06115491163141    2.29861193584321
O           0.23163118280923    0.36452748604884    2.68439664521841
H           0.65078806949340    1.10167158893017    2.20256234832516
H          -0.64278311019838    0.33216662531546    2.26616392984103
O           1.66201271282984    0.01219310692087   -0.64186075709252
H           0.88002894428991    0.16847868899410   -2.27861907994519
H           1.41856465989610    0.84902320643840   -0.20870070351684
H           1.78488502426372   -0.61755053351999    0.08178068150574
N          -1.46301431968232   -1.02779231868939   -1.19602253611139
H          -2.38482789559643   -1.31315851629136   -1.50617709829809
H          -0.90232981431974   -0.54895247363021   -1.98189167472228
H          -1.53474714621604   -0.30404736375311   -0.43070334305011
H          -0.90776723222994   -1.84568438181160   -0.83897822293730
