    26
        -50.46911894  Gyration_radius:  2.45458826587 Dipole_moment: 4.025
 S          -0.43284150121035   -2.17837251068482    0.28273862656315
O          -1.36866548882381   -2.54437325276925   -0.74043642906635
O           0.88968966215765   -1.80725757063069   -0.23434223041039
O          -0.91657867080494   -1.15218835865393    1.19601439492408
O          -0.19823374507081   -3.48234644786857    1.16446781664383
H          -0.59964840702898   -4.16186235592945    0.63199945723852
O           1.33030654666273    1.92940559550922   -1.33420789552213
H           1.75141113696572    2.39685135413579   -2.05581929958640
O          -2.22837937824882    0.13753997660212   -0.69137301433393
H          -2.83507460828408   -0.49930045353728   -1.07661066094557
H          -1.82440159114678   -0.33417089802025    0.06866750384985
O          -0.93082944470528    2.45746123950334    0.29763554412348
H          -1.56670299229577    1.83544494503139   -0.08022742964077
H          -0.17254898889888    2.46329542155704   -0.30465407525323
O           0.02170030881591    1.06773797530564    2.37338103500988
H          -0.40968838488583    1.72328640770767    1.77586125841683
H          -0.46306116226788    0.23735315194636    2.21606300202531
O           0.03336286992378   -0.14312637793071   -2.18228473115779
H          -0.87216295902120   -0.00753207726948   -1.84155513726441
H           0.83874430230879    1.15546849585221   -1.74517158748343
H           0.37832955178384   -0.89400254799133   -1.66912806706363
N           1.94784259110654    0.36316413077161    0.79454344310766
H           1.58291343115180   -0.56180302618123    0.42328413578498
H           1.92387411895092    1.04606495923933    0.01228948543350
H           1.23747143212439    0.69561270867822    1.54879700222686
H           2.88317140072099    0.25764951563297    1.17006785238432
