    26
        -50.47250299  Gyration_radius:  2.48729067187 Dipole_moment: 2.885
 S          -2.10135082253945   -0.19653854046089   -0.83002605945473
O          -2.45440461810955    1.10593000728694   -0.29838972769885
O          -1.42904212750578   -0.09677813742558   -2.11980987540746
O          -1.36143422964866   -1.02157326888828    0.10558723971938
O          -3.46930013965735   -0.95034987143185   -1.09525753708289
H          -3.94659247907318   -0.29463799554956   -1.59190096135069
O           0.95916993715245   -2.39641102164574   -0.01400375173177
H           0.02426796101385   -2.14779829064297    0.10817500502932
O           1.98784136785974   -0.60277960581798    1.80832432435525
H           2.47886137742485   -0.74596530408955    2.61750705076678
H           1.06527206195387   -0.32592752420281    2.08195522432559
O          -0.40256812714786    2.38832073399905    0.61109295569973
H          -0.61514259848038    3.32261638325310    0.59274951312798
H          -1.19143150778836    1.92124989852932    0.22910104946679
O           1.97043594197547    1.29302949436557   -0.18895817866941
H           2.15719348315648    0.69194789659475    0.55470180518540
H           1.16480552506204    1.77925113096318    0.06954875767115
O          -0.44496814051657    0.18175969675490    2.30791358053242
H          -0.45640569790555    1.09858157501884    1.99590118198922
H          -0.91411678971288   -0.31862364159658    1.61031974089083
H           1.43521823121893   -1.93115512929140    0.69804121593792
N           1.12633568055790   -0.55209265819606   -1.87884116944615
H           1.62638328658144   -0.69242151528777   -2.74898698373953
H           1.16641200272910   -1.40910101965613   -1.24837072509145
H           1.52627013893727    0.25779310176098   -1.31951086225504
H           0.09829027246122   -0.35832639431521   -2.05686283277031
