    26
        -50.46309155  Gyration_radius:  2.4466367347 Dipole_moment: 4.789
 S           1.76380036372221   -0.72851653943750   -0.53802541880695
O           0.47109202836872   -0.95311521459216   -1.20306505098440
O           2.65106330844545    0.11011415035948   -1.29126549817796
O           1.57618634456346   -0.37425421953146    0.85196415184999
O           2.44432898849652   -2.18321685624918   -0.49362773766530
H           2.96813407174333   -2.21531914816210   -1.28856306951667
O          -0.32375821842535    1.58898723328818    1.46701600928015
H           0.39719356918447    1.34234557464700    2.05278143813209
O          -2.74507819139794    1.41008766543017   -0.03226197303714
H          -2.05180110146048    1.75930506091670    0.54528367282674
H          -3.28358616235817    2.15862622562112   -0.29435431649378
O           0.50562284910543   -2.50346286628869    1.96670391959923
H           0.90001350717673   -3.26255415834611    1.53399615788774
H           1.05303633861696   -1.73669371003669    1.68639264776521
O          -1.07291600347513    1.02471490530514   -2.30427822064338
H          -0.55908158201247    0.21646210648634   -2.14956567835501
H          -1.76524881658523    1.04197409011589   -1.62618972451331
O           0.88294062097935    2.11280321367607   -0.78887796259599
H           0.22668969084638    1.92458719224512   -1.49197673023984
H           0.14879945972582    1.85403068610656    0.62528237369013
H           1.63690854563009    1.52914280000686   -0.96930965336301
N          -1.20585227065385   -0.83857925011856    0.75925069184028
H          -0.62585444982515   -0.94268752307349   -0.12930077971397
H          -0.90617394648757    0.10006313005896    1.14785259649380
H          -2.20459949176628   -0.83888621611904    0.57307084375849
H          -0.88185944237599   -1.59595833211688    1.39106731083261
