    26
        -50.46911895  Gyration_radius:  2.45462989207 Dipole_moment: 4.022
 S           0.55539108810779   -1.39428089008515   -1.66166742631100
O           1.48928956006118   -1.26799503669254   -0.53648944607835
O          -0.32246923418611   -2.52340877582365   -1.55680883777845
O          -0.12557823954469   -0.12698730925453   -1.88855249876558
O           1.46171039694566   -1.64731902025247   -2.94518608984015
H           1.27957564501909   -2.56030604187552   -3.14475643971813
O           0.15250803288375    0.64247081327854    2.61474266728077
H           0.20365637318187    0.53738642124577    3.56495263504977
O          -2.17629536025760   -0.76964056219985   -0.36327037789784
H          -2.53104558740019   -1.58576713205109   -0.72398788807096
H          -1.48078239053608   -0.49900999812298   -1.00085504703298
O           0.02627192348864    2.40073747508259   -1.00408516262200
H          -0.09731667247943    1.62938160325949   -1.58632164580537
H          -0.73823908100307    2.36640000670761   -0.38180129728342
O          -1.77918780951563    1.75789534325534    0.85981248087188
H          -1.21641604163906    1.47303887900736    1.59457567931902
H          -2.16396628345897    0.95189867574837    0.49051426968431
O          -0.31904263610876   -1.61475102956084    1.44033123782099
H          -0.04768733029087   -0.26735601902107    2.23836323885562
H          -1.11992554811357   -1.43876369723381    0.90922964839642
H           0.39150891567565   -1.72060908325045    0.78459033202296
N           1.74054481833421    1.14247770830080    0.47141609193811
H           1.11070769821181    1.77694726538518   -0.14891167304536
H           1.72288235402480    0.17695802531923    0.03101081881286
H           2.68945352408518    1.49220696497746    0.53664324635336
H           1.29445188457662    1.06839542388907    1.40651148384145
