    26
        -50.47250209  Gyration_radius:  2.48755221214 Dipole_moment: 2.903
 S           0.76949296573335   -2.10584729431978    0.34464637919054
O           1.04483773996530   -1.61738752652943    1.69055275154055
O          -0.57511823817332   -2.63544968208916    0.22264548630882
O           1.09603003100723   -1.12062321470725   -0.66834350495093
O           1.75010143534606   -3.32649032287806    0.10373786185515
H           1.40241694489550   -3.96422054239072    0.71760199492127
O           2.08651076519800    1.38992761066775   -0.60995460245950
H           1.94339775554563    0.44491557312319   -0.80298267687166
O          -2.37218397464960   -0.77905816399278    0.14502568933484
H          -3.19923953242802   -1.16618247288142    0.43571339932452
H          -1.69394680092939   -1.50148114482479    0.21232598517860
O          -0.35989873619977    2.25994562187632   -1.53514150694287
H          -0.58391699679882    1.33894807389668   -1.85768146612858
H          -0.58023224954505    2.85812966766785   -2.24939239570982
O          -1.40526674563013    1.65013311187432    0.93892967853532
H          -1.13856739035325    2.03329047098725    0.08379146089992
H          -1.83439184858773    0.80184711585159    0.71801355993234
O          -0.92212205259172   -0.20515473963091   -2.16108315685218
H          -0.14777556542181   -0.64680855309427   -1.75805157414033
H          -1.65920769865536   -0.42710993087737   -1.57336125908137
H           1.33827771609548    1.84683662065952   -1.03583774226967
N           1.01678802421915    0.98852836402859    1.75672846912356
H           1.58090028171767    1.26322182282487    0.89652337380713
H           1.04638828165576   -0.07094636310638    1.80904833761924
H           1.38295791417043    1.40523676207128    2.60474783089354
H           0.01376797437381    1.28579912577136    1.57179762695338
