    26
        -50.47361574  Gyration_radius:  2.43360395593 Dipole_moment: 3.312
 S           0.06662885180423   -0.23615213090592   -1.50219530112505
O           1.00777465830003    0.71645575848478   -0.89053599560694
O           0.38462278745908   -1.59138640992146   -1.09373785458193
O          -1.30584095747300    0.13152831471020   -1.21197487537824
O           0.23580519489865   -0.13020675973711   -3.05025507097479
H           1.17183894558677   -0.36235362831012   -3.19635654056820
O          -0.22409639680153   -0.33156971853670    2.61444930001916
H           0.59606991879037   -0.76192640551458    2.28965478201255
O           1.80349595397571   -1.26213901283485    1.12879313357875
H           2.37773083525012   -0.54537496602611    0.85109244841987
H           1.27644701752527   -1.49854357233350    0.33661360536397
O           2.72331914676929   -0.74745427916296   -2.36269691751383
H           2.43830793062338   -0.06372006713764   -1.73622187753111
H           2.45161645993555   -1.58648114358272   -1.97493746044809
O          -2.63223893881449    1.96764672186383    0.16712245975743
H          -3.30014476950024    1.45016243058276    0.62331091387921
H          -2.27475839489749    1.37850933385762   -0.52787224873903
O          -1.83976707374500   -1.51329820618813    0.82880803718183
H          -1.74199679413095   -0.93598404850087    0.04765295146460
H          -1.39523165751397   -2.32804146625443    0.58132810346881
H          -0.94382176560292   -0.80593867894830    2.14245515885458
N          -0.16680779349890    1.84093783206437    1.19931999804157
H          -1.15248119414505    2.05023603726538    0.90272906798363
H           0.34604046206272    1.49752171972768    0.34487206360953
H           0.28560646319429    2.65870380935746    1.59258463932614
H          -0.18811889005212    1.00886855597408    1.89599749950176
