    26
        -50.47250295  Gyration_radius:  2.48739529718 Dipole_moment: 2.884
 S           0.48070861191751   -2.11458145389277    0.66485542938247
O           1.14386277671209   -1.44618687708564    1.77791512058359
O          -0.92114442741048   -2.36663377741174    0.93858710672955
O           0.70956408033456   -1.43026713430607   -0.59326318860199
O           1.16534864879001   -3.53620316403595    0.52388414393290
H           0.85704331954550   -3.96698303398128    1.31371722530038
O           2.07605597687313    0.78226119473442   -1.31736971446361
H           1.74081696725514   -0.13112734020327   -1.25265872528974
O          -2.35966909320221   -0.22413774887284    0.79138811990933
H          -3.14431691828260   -0.36669638087792    1.32272746332640
H          -1.81105372690753   -1.04638599984834    0.88812801791960
O          -0.34786478720418    1.94968642135726   -1.91531010051677
H          -0.78778164284104    1.05143848017118   -1.96333850881123
H          -0.63165547447697    2.43179053788949   -2.69219368115516
O          -0.85445303559804    2.05595126692599    0.79006124491603
H          -0.74220939435670    2.20477937622771   -0.16615273878798
H          -1.45401200406813    1.28917747941225    0.86234482389438
O          -1.43271626063531   -0.41663050539081   -1.82644294783622
H          -2.03346595161648   -0.36322364679936   -1.06865466785051
H           1.33086856151529    1.29529880493330   -1.68017545066457
H          -0.66556114516966   -0.92456688310089   -1.49378865617648
N           1.55384809174069    1.07194285226261    1.24177298594842
H           1.42380406919970    0.05954426936061    1.53171959976904
H           1.93256938732756    1.05362006347315    0.24681375993217
H           0.59709872192385    1.53152868330319    1.19570891988255
H           2.17431467865130    1.55660451572355    1.87972443866902
