    26
        -50.46934675  Gyration_radius:  2.40580488002 Dipole_moment: 4.742
 S          -0.46270746045447   -1.26234452806330   -0.86518798553283
O          -1.77430590319471   -0.79719020554112   -1.57154179543251
O           0.64596854541173   -0.54280425910080   -1.51815347646629
O          -0.57073036771766   -0.83364487400503    0.53543314655715
O          -0.34292085358430   -2.69011616051640   -0.97161410676324
O           0.95514608584191    1.01483858432354    1.70188054279341
H           0.29710094987871    0.32555831743997    1.47817024084043
H           0.60107488337255    1.81246999873626    1.28018620666686
O          -0.77981240171161    2.73765758320658    0.31790659422096
H          -1.11057140589920    3.61388869146599    0.52060620864765
H          -1.50013332305810    2.10359999690240    0.56411676293293
O          -2.58507977898054    0.84680042419345    0.75273763396869
H          -1.90992004592016    0.13264512150855    0.77038747994218
H          -3.16517905563756    0.62756966179022    0.01990979798047
O           1.35281384962039   -2.92629552054102    1.03436966792800
H           2.20151107074206   -1.57560216159700    0.70767694425133
H           0.75628912607885   -2.75257278961592    1.76741806109008
H           0.76099869760240   -3.00480373705992    0.25008111226664
O          -0.83944884646348    1.54792965990951   -2.16730145592655
H          -1.58198615811538    0.13088876413279   -1.88155271412145
H          -0.78757927493771    2.09693155899909   -1.36272886317156
H          -0.02991447484903    1.01059062054078   -2.16865345681421
N           2.46247955508936   -0.63086319781099    0.30820661378793
H           1.85592081878477   -0.55859340113035   -0.56634005471934
H           3.45362403941190   -0.55077733524165    0.11160762586737
H           2.09736171869068    0.12423918706491    0.95237926916981
