    26
        -50.47361554  Gyration_radius:  2.43369050526 Dipole_moment: 3.325
 S           0.06524913822117    1.24826380195826   -0.86413756626582
O          -0.14988341617505    0.30004475025715   -1.94086612424779
O          -1.00617773587570    1.13456947344332    0.13908389561866
O           1.37059543473371    1.11250780707050   -0.24703522913977
O           0.00177900835556    2.69253943410414   -1.45269926696671
H          -0.89397403968050    2.74642547026387   -1.83497198453091
O           0.06891085823163   -2.50439550915580    0.85090102065493
H          -0.68146320545201   -2.38075586714053    0.23044772827682
O           2.40513219163454    0.65559524951216    2.15100412462085
H           3.09341655657253    0.01121532940527    1.96937043920938
H           2.15764785148146    1.02660217128399    1.27970128315446
O          -1.75034559576723   -1.52381817052092   -0.85629531055942
H          -1.14753031336995   -0.92699580556657   -1.34772820023758
H          -2.36594266086839   -0.94720386201439   -0.39894493535447
O          -2.45769768730136    1.86741475916111   -2.00901615382848
H          -2.29034055642532    1.59352801331264   -1.09363528999348
H          -2.13336998453316    1.14693326799065   -2.56041774552410
O           1.91150943554179   -1.45080559484065   -0.78856140466449
H           1.81716913941964   -0.49482291579052   -0.61487141462357
H           0.86217212567904   -2.30286974298427    0.30677292077866
H           1.56256500433434   -1.56835741144321   -1.67577806733729
N          -0.09982197249155   -0.28519104039632    2.18228342452770
H          -0.04499636755143   -1.27414312713478    1.73814310176256
H          -0.65833668891956   -0.27580850647221    3.02850068618516
H           0.87806963615123    0.05335870765713    2.36170856061962
H          -0.51433615596329    0.34616930805574    1.44704151785901
