    26
        -50.46934677  Gyration_radius:  2.40578223536 Dipole_moment: 4.747
 S           1.00274450390936    1.24314317992660    0.09433545930841
O           1.46170865422027    2.28723426875644    0.96805460264390
O           0.79658532183417   -0.01617281254377    0.82151069508570
O          -0.22891857218639    1.60201231750198   -0.63182091747130
O           2.09085120979971    0.95509630530881   -0.98712149983747
O          -1.43656744654858   -1.47123635361553    0.77855628563725
H          -0.54303466602495   -1.10232853366335    0.93239211441206
H          -1.38252400355676   -1.83076367641041   -0.11998606904432
O          -0.38953246391425   -2.27161751866569   -1.70115777989099
H          -0.45090234735239   -3.09632584141833   -2.18521226746479
H           0.49377698578639   -2.27620016829768   -1.25259103549821
O           1.95955962599784   -1.96417197556931   -0.51317323235457
H           1.61979581165774   -1.27361890948094    0.09829142718827
H           2.64852676711535   -1.53241681331263   -1.02359775027613
O          -0.19597889405473    1.68517602227299    2.92930043045594
H           0.21006204969369    0.86962673915483    3.23479634633583
H           0.45350858647551    2.05697632378288    2.28795000343088
H          -1.46883884856947    1.32218106389674    1.98054109701180
O           0.37578220796676    0.15518209613452   -2.76221062250807
H           0.03402091694061   -0.72555915712113   -2.51995938883978
H          -0.15400214002006    0.78955534333513   -2.25126475887835
H           1.58264395716428    0.62664705847477   -1.77946202610183
N          -2.03721247647624    1.06633901780520    1.12519248616349
H          -2.95677112360920    1.49287706923197    1.12613745618752
H          -2.06057118591535    0.01278075491180    1.03397413862432
H          -1.42471246032752    1.39558418961519    0.31652480567407
