    26
        -50.45835391  Gyration_radius:  2.59549936561 Dipole_moment: 7.810
 S          -0.67406404610771    0.15051576689747    1.74897699364417
O           0.62308850167289   -0.49051504220820    2.05000498118534
O          -0.49512751641585    1.56050222074372    1.46587611042427
O          -1.35979972215659   -0.56988591593621    0.69023670457565
O          -1.55192098844258    0.01101819584468    3.03686394717319
H          -1.04692948361773    0.51219990510512    3.70751955386471
O           1.75647636584422    0.14901067855585   -1.84885678423370
H           2.61908335626853    0.56190850918080   -1.79786066220518
O          -2.04941633907389    0.28545648186619   -1.79650120730661
H          -2.06593047103437    0.01037007848102   -0.86489512788401
H          -1.58580507599905   -0.42529290206621   -2.26622277006539
O          -0.19424770983791   -1.44900578366332   -3.03270379537904
H          -0.37332494781458   -1.41326543455195   -3.97354828431396
H           0.54471893920468   -0.84427446920577   -2.86666420049664
O           0.45309854077964    1.44969452391884    4.00374382023402
H           0.24936883179439    2.00019073270231    3.23360444333867
H           1.00305264818195    0.73780349817013    3.65279747871612
O           0.01048771945301    1.86830450655135   -1.14814076789159
H          -0.82297053538003    1.48696622001724   -1.50634695305185
H          -0.12954841309315    1.88233452774524   -0.18018730593586
H           1.08698469762668    0.87388791220144   -1.58149207623450
N           0.82829611856792   -1.70825838375615   -0.16621647141361
H           1.09906572083159   -2.67833131221582   -0.28412943872227
H           0.96714703301197   -1.31818170889375    0.83048042736281
H           1.30524154240953   -1.07081206723842   -0.85392904609923
H          -0.19702476666690   -1.57234074825836   -0.25240956928434
