    26
        -50.46911759  Gyration_radius:  2.45434921704 Dipole_moment: 4.075
 S           0.81318287953294   -1.28650585027893   -1.64139066452467
O           1.26237287849240   -1.56446870766163   -0.27162292330891
O          -0.26575753897416   -2.12691168518774   -2.07256554459706
O           0.56483329839828    0.13882392439084   -1.80526839148939
O           2.05373546822745   -1.62949858102344   -2.57747062446810
H           1.78293995953047   -2.44696812823461   -2.98358809056819
O          -0.69950557055984    0.25997149292234    2.59059046816401
H          -1.03215832906378    0.03313282453705    3.45918572143104
O          -1.53716782472765    2.07424382557022    0.57478229288326
H          -1.92325298649024    1.45893726787079   -0.06279750351455
H          -1.36776804872165    1.55728672969829    1.37585535341791
O          -1.99567191814172   -0.07444452189642   -1.21645697339955
H          -1.07103405601563    0.06155294404974   -1.51621053159974
H          -2.36180306415088   -0.70706760787957   -1.83914691199463
O           0.92831317747712    2.39879522267227   -0.40642660966824
H           0.86490291542659    1.76927919488127   -1.14725023031766
H          -0.00084764742301    2.50763690052288   -0.09367656431418
O          -1.18222550903254   -1.61717648068556    0.87588432821762
H          -0.93956821088432   -0.50543231196219    1.98554777722110
H          -1.66680891320100   -1.16146854672463    0.16047965677336
H          -0.32011432744569   -1.84032277035968    0.48451252209737
N           1.64266160405107    0.54103798175947    1.24835112177901
H           1.57830164106490   -0.32132987316758    0.63281554074494
H           2.55020853804341    0.59847836700899    1.69561062946599
H           1.44732282941322    1.39628688676533    0.60452693728867
H           0.87490873519875    0.48613152241396    1.94572919426697
