    26
        -50.45835395  Gyration_radius:  2.59548644637 Dipole_moment: 7.809
 S          -0.39407852344281   -1.36999766241026    1.22629538193739
O           0.34331714174109   -2.15505711332131    0.25665049751302
O           0.52706829568703   -0.56693804801182    2.05735471046122
O          -1.40875388616873   -0.51845643822531    0.63005987262836
O          -1.13436595102094   -2.34915546955149    2.19683026686807
H          -0.40884986055946   -2.89301398728760    2.56266288461609
O           1.48837194831711    1.63801125872979   -1.27599353450894
H           2.44557776605499    1.65139324618047   -1.30354603591679
O          -1.87802068315365    0.00764861085583   -1.99557908931816
H          -1.80288878879841    0.97062127550595   -1.90748728916904
H          -1.93050022581873   -0.33076767038006   -1.08642957671408
O           1.36675530074425   -3.14540431853071    2.56429110454386
H           1.52862431110328   -2.21494958337769    2.76549287077991
H           1.35221210332422   -3.18474121057403    1.59687661394587
O          -1.05031388440622    2.69448980198378   -1.72314914988772
H          -0.11304945429922    2.45552987108174   -1.78460632717156
H          -1.27693506801457    3.13384179476235   -2.54421335886409
O           0.70674925026308   -0.68996000159534   -1.95802433659978
H           0.66916874496802   -1.30622138683494   -1.19938074261298
H          -0.23693935257744   -0.53994990679832   -2.19322188240516
H           1.21650948803966    0.69878882167313   -1.57443554788727
N           0.00482237841984    1.65365288869280    0.94690104192408
H          -0.86820192073485    1.19964089743237    0.61680180794221
H          -0.17448173192671    2.52746649904633    1.42913526576609
H           0.38092955928440    0.86006168569591    1.57423194059387
H           0.64727305297226    1.77346614526382    0.12248260153852
