    26
        -50.46975147  Gyration_radius:  2.44567264933 Dipole_moment: 3.844
 S          -1.89710741350549   -0.00341606655108   -0.14059842219762
O          -2.38207922530500   -1.23650675018877    0.42879768834527
O          -1.28514942541210    0.88000574774288    0.85704902370984
O          -1.01438076946506   -0.18608388099232   -1.27546772734038
O          -3.18045919953021    0.77302229437741   -0.65795635103756
H          -3.84708492471409    0.10898548707536   -0.52198709754094
O           2.58943057321601   -0.02807405655963   -0.25672164834101
H           3.49368484043098    0.28030634176955   -0.31917441144893
O          -0.24596685753314   -2.64764009906552    1.19819115813370
H          -1.13894251067797   -2.30117666459231    0.99382350413140
H           0.18200761245168   -2.75529838640739    0.31678306495226
O          -0.32872362525905    3.17028671361724   -0.10142396215965
H          -0.72855126738870    2.38144297933013    0.31915366598222
H          -1.05043775249640    3.64374415680164   -0.51800831395417
O           0.85593720222405   -2.15565176690991   -1.16272510474862
H           0.14296076828990   -1.53100495490175   -1.38435136364233
H           1.63789012249777   -1.60933561765626   -1.01182145095159
O           1.05271585794800    1.46632607762909   -1.69626141903483
H           0.27978331703568    0.87069655448051   -1.73317870254135
H           0.73887445942449    2.23510721094295   -1.18201204581689
H           2.04455244680856    0.57691452453605   -0.85037127334802
N           0.83898256218378   -0.37422364767339    1.76406546485396
H           0.46526443506160   -1.39162961946413    1.65332372264914
H           1.61518177479029   -0.22350176824531    1.08063795080145
H           0.02472553490936    0.23355626377375    1.48736941350076
H           1.13689146401513   -0.17685107287051    2.71286463704227
