    26
        -50.46975120  Gyration_radius:  2.4457093522 Dipole_moment: 3.849
 S           1.63830262216302   -0.48755140757867    0.83555061104686
O           1.54900092524765   -0.61238261699704   -0.62284834056358
O           2.30074248171002    0.72395988989812    1.25205099052933
O           0.34087575053332   -0.68980154516494    1.44891476181109
O           2.57506436530079   -1.67995845051925    1.30241511603234
H           3.22249856225092   -1.19986104201514    1.80652498247256
O          -2.43521927672768    0.47459255876081   -0.78455373817470
H          -3.26784111208410    0.38526235279194   -1.24867701060032
O           0.30967008891339   -2.80023966530409   -1.49290197460523
H           0.83958744460953   -2.01838958987802   -1.23423002401140
H           0.78077775750924   -3.56377644882700   -1.15571030710335
O           0.69994190189608    2.76555936777944    0.60767784350186
H          -0.07612023537751    2.52260535020701    1.16475339299083
H           1.41656047580006    2.17497462530915    0.91893697726643
O          -1.32335068681499    1.44518006936420    1.69979571298117
H          -0.77034987352121    0.65115536595516    1.80624102373831
H          -1.94689818843498    1.23099289268148    0.99411467755602
O          -1.66749145597767   -1.83032315433734    0.08986797802320
H          -1.14368311422044   -2.29914767666678   -0.58823441341637
H          -1.00241818138976   -1.51729537433871    0.73271784480108
H          -2.19844357029476   -0.44668252268018   -0.45208528918529
N           0.02238474363583    1.36074157933665   -1.44979429749452
H          -0.97314429733831    1.07335803446365   -1.31347044761757
H           0.64142110566480    0.53164647110475   -1.25375967626040
H           0.17954521633970    1.72178144260639   -2.38406567345988
H           0.28858654060694    2.08359950404900   -0.67923074025895
