    26
        -50.45493791  Gyration_radius:  2.637189268 Dipole_moment: 5.969
 S           1.23103247985620   -1.40645020597214    1.91699295489482
O           2.14834924821055   -1.74674547492972    0.82041278704982
O           0.91064560304538    0.00658920094298    1.87299907487827
O           0.07227678996283   -2.26813375779285    1.96362619219280
O           2.03613890001980   -1.65982206111801    3.26101878557243
H           2.70736991357510   -0.98380807864279    3.24757316763970
O           0.90358254747369    2.01675512282413   -0.93881766242638
H           1.74082848055967    2.39667092752733   -0.67147020757552
O          -1.37750983628994   -1.82237321937138   -0.10634658478409
H          -0.88969199179373   -1.98355616732130    0.74914102484548
H          -1.80842775122312   -2.65148251583901   -0.32061440631931
O          -1.12394393820140    1.28669636340415   -2.66378340499721
H          -0.39221482497690    1.71447541209404   -2.19162359574536
H          -1.59522320139905    1.98242018065213   -3.12413926980255
O          -2.50007522338538    0.70543021521379   -0.29299426209696
H          -2.15699313449798    0.85870127825365   -1.18903577270017
H          -2.28657460750324   -0.21709297891221   -0.09054295988543
O          -0.62734480060714    2.05278925154058    1.09080547372323
H          -1.44081157529371    1.63514302547155    0.72981949738199
H          -0.15323905833766    1.34475707889334    1.56493961207773
H           0.28716089941738    2.11954709352492   -0.12600734395601
N           0.86545973052297   -0.67221349995583   -1.12397528102492
H           1.14806451377245   -0.95043973608987   -2.05853990101345
H           0.90015438519085    0.37654557049214   -1.03220049734970
H          -0.09472857683981   -1.01837322083001   -0.92170629372219
H           1.49571500871757   -1.11602980404025   -0.36553111685358
