    26
        -50.45649301  Gyration_radius:  2.55162043663 Dipole_moment: 5.930
 S          -1.61911652137513    1.07080144600027    0.17397001803090
O          -2.66934018518984    0.18098166263280   -0.23619271275742
O          -0.75232863743455    0.49624584521733    1.21821327991225
O          -0.81750569009867    1.63865144575966   -0.88575608515237
O          -2.33893964951527    2.31035322397004    0.87646440952541
H          -3.12791882971882    1.92363248369292    1.24398963604822
O           1.62424951707915   -0.91862591601407   -1.09899620220298
H           1.97724088281537   -0.90755059836901   -1.98954716046665
O          -0.99018231405378   -3.62811802582450    0.32920411328768
H          -0.45285202654279   -3.08797834045020    0.94623398173577
H          -0.50239824834483   -4.43874225338792    0.17793641050528
O           1.05028393107984    3.42433948611666   -0.64870226611246
H           1.28824788331593    3.71329945302744   -1.53125005703708
H           0.21493787861191    2.90505432951321   -0.75367094532840
O           0.65186939220476   -1.83856290561918    1.51832456360170
H           0.03749556974533   -1.08430582904811    1.54018116305443
H           1.17350972040787   -1.72668396800409    0.71534973931589
O          -0.88684246001929   -1.47160913554147   -1.35701880284315
H          -1.05519317062480   -2.29882537169183   -0.86163672901019
H          -1.57211623277479   -0.84980413127148   -1.05582961268535
H           0.63649225085012   -1.08039068875842   -1.21371773553291
N           1.66381735141539    1.14473396725784    0.59122817799404
H           0.67185000762746    0.95577295629213    0.95691212772423
H           1.64455573728466    2.09101251418898    0.14349250249186
H           2.34788138705884    1.07757180705137    1.33718087740273
H           1.80230244619667    0.39874654325763   -0.13636269150439
