    26
        -50.45689043  Gyration_radius:  2.60159706593 Dipole_moment: 5.419
 S           0.88743112414153   -1.85754164525162    0.58378241282980
O          -0.44192067466572   -2.39277946272068    0.29795648786556
O           1.44233542296543   -1.18799320693048   -0.57415159875290
O           0.90447736676629   -1.03380637073531    1.78034911820035
O           1.80937979670469   -3.10481242453954    0.90326637571759
H           1.70018120800478   -3.64405592069621    0.12675140105158
O           0.17180793327222    0.91730326531946   -2.09739646418167
H           0.56138487887864    0.07160379061808   -2.34424178615427
O          -2.64492605215831    0.95019807775976   -2.60896788309187
H          -3.07765947570487    1.37712290901695   -3.34879797172578
H          -1.69849072202080    1.13312228634699   -2.69497222677467
O           1.60864247498602    1.59306176562323    2.07206692723261
H           1.57373362399716    0.62137799864540    2.07557054916581
H           0.72501550964065    1.88042056409908    2.31665800920015
O          -1.20814154709319    0.44222921192728    2.29470149145538
H          -0.41553945456937   -0.13819465184754    2.19138986275909
H          -1.73649077864964    0.04637689301659    2.98916951186636
O           2.21555534237221    1.43204301972450   -0.57824106672875
H           2.22761931229671    0.46026827868375   -0.53514614772380
H           0.90603529687526    1.35000370564127   -1.58114722872793
H           2.09200911116133    1.71733138797351    0.34591406673842
N          -1.54211955785303   -0.12270736599101   -0.31988275914777
H          -1.60736281367518    0.31354937153373    0.62129315916397
H          -1.21832676539081   -1.12183566904954   -0.16319384656464
H          -2.42061841901008   -0.06162419057035   -0.83776836635651
H          -0.81401215125155    0.35933838247549   -0.91496203730205
