    26
        -50.45689058  Gyration_radius:  2.60177517458 Dipole_moment: 5.406
 S           0.64566615812095   -1.86959063776969    0.81891570176306
O           1.53555953973264   -1.20395071829937   -0.10965247317051
O           0.57322234669468   -1.15034470778832    2.08878128232000
O          -0.66867772885567   -2.13295734233796    0.25894656597116
O           1.26946251461109   -3.28807410704292    1.14527933037771
H           2.09252907385284   -3.05867321206570    1.56435720490558
O           1.40248375640603    1.57665739381349   -0.90852056414721
H           2.11403520143209    1.03255603080832   -0.55449986847008
O          -1.71839244781830   -1.36230305120797   -2.14637218876298
H          -1.33182351140319   -1.85319285732574   -1.40142383883885
H          -2.38904099974716   -0.79511715359267   -1.75691098657375
O           0.68655655723063    3.65855662644484    0.92213237544749
H           1.05627475917799    3.20911191672625    0.14888510798919
H           0.94120262559269    4.57917425438170    0.85506143964014
O          -2.54090869147190   -0.32061696466372    0.60074133747720
H          -3.15384231515132   -0.59241005953204    1.28526862512951
H          -1.90086799656397   -1.06586525215931    0.49713551435645
O           0.75871308195534   -0.31278824131161   -2.57098591993900
H           1.09240306242900    1.04346005862762   -1.69119379227706
H           1.13110700557771   -0.85453895623479   -1.85385187437189
H          -0.16518402300784   -0.61392360001545   -2.65182213678263
N          -0.29866833156211    1.08891864679980    1.10358031657218
H           0.27718355555499    1.22432706836040    0.22805623436677
H          -1.27603977980712    0.82054992313121    0.87304021143405
H           0.11638344944829    0.27038788670232    1.63781248551060
H          -0.24933687242931    1.97064705555110    1.61723988008418
