    26
        -50.45649290  Gyration_radius:  2.5514356499 Dipole_moment: 5.927
 S           1.34157665152712   -0.60747004678273    1.27564776816922
O           0.76434294987211   -1.30225916056292    0.11125513238252
O           2.50854282550863    0.16308185333220    0.94802102456676
O           0.30733815369707    0.08640264735097    2.00846840009812
O           1.84007143329984   -1.77539268741773    2.24281077683376
H           2.73652574181968   -1.92554767868950    1.95833683778202
O          -1.49567703621102    1.37264552205543   -0.75368056138251
H          -1.94850349218506    2.16369678755666   -0.45865673513367
O           1.82291529880095    1.30764312305596   -3.03668362236859
H           1.25607785584860    0.51085752808112   -2.96665363816154
H           1.51838037366514    1.79485319925602   -3.80334184364620
O          -1.87248929866619   -0.93389598976957    2.97806341030897
H          -2.27696705047699   -0.27167000478380    3.54096000841304
H          -0.96082141973189   -0.60118359105533    2.78651052991344
O          -0.02560175375615   -0.56316745972352   -2.40741280684224
H          -0.65360669642031    0.10334584895765   -2.10607745039888
H           0.39946494474264   -0.90690231402423   -1.60244391971112
O           1.02440837974418    1.87435244789558   -0.47800854361103
H           1.43628618216143    1.79436526163200   -1.36231623559871
H          -0.51870359042707    1.55735482162029   -0.59101410233632
H           1.58192995831455    1.33870256344189    0.11292116374768
N          -1.79457744733235   -1.05281661242292    0.31520690253139
H          -0.74825969785320   -1.28663005090516    0.25297567237256
H          -1.84861411967457   -0.07288901211497   -0.06165589813267
H          -2.34793800735556   -1.70108790679212   -0.23472094046777
H          -2.04610112891168   -1.06638905918997    1.33148866066840
