    26
        -50.46006606  Gyration_radius:  2.53374267609 Dipole_moment: 6.063
 S          -0.82618942241913   -1.40925898647306    1.47082237041885
O           0.61391331533402   -1.52726946213926    1.53357247762742
O          -1.49670250648165   -1.01590186027655    2.68171057632744
O          -1.20257248997034   -0.59405844146681    0.30628172627261
O          -1.37038412666697   -2.87555490774781    1.13283175797426
H          -2.04800582294908   -3.01983730501236    1.78623790592574
O           1.80116871316054    1.43940891202622   -0.61356634201724
H           2.63930670772335    1.89199833533431   -0.71171157361269
O          -0.21876648842886   -0.28493431145395   -3.48324080515662
H           0.03096851659346    0.16539133120332   -4.29047482162732
H          -0.62077957018244    0.39730518483901   -2.89349273010824
O          -1.21317830335947    1.60391512656994    2.25660503310115
H          -1.69463636636464    1.70787924532842    1.43272758112956
H          -1.41253518545110    0.70026981351918    2.56741285728471
O          -0.90111832353191    1.43227825422972   -1.54155336050988
H          -1.22542327469672    0.80614244262743   -0.87627478505811
H          -0.02498063968718    1.70543921172574   -1.23357008714169
O           1.38508436663575    1.01828654806253    1.87726954153608
H           0.52208821514427    1.40980654994463    2.12636088462047
H           1.23570471185543    0.05339761437258    1.89254639330843
H           1.65093611525516    1.34945379868041    0.38415948095829
N           0.89873877374021   -1.01809984485524   -1.17726029798806
H           0.61350560877104   -1.02166106928972   -2.17872603541676
H           1.40520933024562   -1.84347275908069   -0.87328356512991
H           1.44294531260445   -0.14043128831545   -0.99090231014896
H           0.01570282465621   -0.93049211550794   -0.58448188375680
