    26
        -50.46006600  Gyration_radius:  2.53335882921 Dipole_moment: 6.069
 S          -0.74212861509108   -1.75095641487254    1.10387905733031
O          -0.60565359514957   -0.67368184349484    2.05891595102607
O          -2.05774427811207   -2.31098608408875    0.94259359631481
O          -0.11617394387690   -1.36249756452042   -0.16899572806850
O           0.17005763912611   -2.94317897690754    1.65773960764582
H          -0.40514999685077   -3.70142413752406    1.62325642080378
O           0.06498623065571    2.37730847408934   -0.18799311892499
H           0.02873930513176    3.32377814327003   -0.04718085279882
O           3.18971060471333    0.36505498119839   -1.39408287462452
H           2.31786956048442    0.30673181759241   -1.85402893920883
H           3.72058915490890    0.98527215232911   -1.89446392685423
O          -2.84075965965591   -0.52356338332083   -0.87897390228587
H          -2.72584393031207   -1.25443278569039   -0.24219528591827
H          -2.20410936184223   -0.68586686211018   -1.57881758793727
O           0.62312544612997    0.39128986687431   -2.16538714886749
H           0.28900661785543   -0.35465327500663   -1.64404464488867
H           0.31199530558179    1.18586019493952   -1.70832045503580
O          -1.99158229131413    1.30791563013298    0.89884818295867
H          -1.58168894588322    0.64255217664189    1.48428299955596
H          -0.79287254571252    2.00654739859874    0.20267267206919
H          -2.47232068767259    0.78560160521236    0.22336718717858
N           1.59305329083076    0.38347120286301    0.73966109870422
H           1.08116347396997    1.27601918255875    0.53322637998043
H           1.75012373629101    0.26454576474900    1.73530571532282
H           0.94293030376305   -0.39523906168424    0.40832369267287
H           2.45267718626761    0.35453177891201    0.15241189730365
