    26
        -50.46006606  Gyration_radius:  2.53341531103 Dipole_moment: 6.066
 S          -0.10559027733054    1.31286090590995   -1.76034868720191
O          -0.20710018720349    0.84240990606729   -3.11637146555001
O          -1.34515014175793    1.47722648997911   -1.03382061384762
O           0.84323428747378    0.53838351725297   -0.94624925748620
O           0.54043960655022    2.77355899817519   -1.85688920412650
H           0.75957912820827    2.86262038017395   -2.77937840476662
O          -1.18101418347526   -1.34535468748099    1.57787049993945
H          -1.83229902054990   -1.76090508971425    2.14362960645602
O           2.08849793740545    0.43026706667512    2.77600491241457
H           2.09889681428521   -0.29079971374404    2.10151921332951
H           2.31676508627563    0.02416206033181    3.61254557902857
O           1.58915599338074   -1.39332318443484    0.87611394435623
H           0.68601900721961   -1.64925834575132    1.11239736626495
H           1.49980736617185   -0.80824458102810    0.10828473885926
O          -0.22430595720085   -1.74398662897441   -2.45605737703374
H          -0.22298004855616   -0.86302172198297   -2.87650805560768
H           0.62866612045975   -1.82702600917895   -2.02364328263514
O          -2.19117822349664   -1.05266998358739   -0.75619357275335
H          -1.60577977909567   -1.48466840162379   -1.41262219798519
H          -1.59979007546629   -1.30639918548658    0.65634499872481
H          -2.07022175520076   -0.09525169959371   -0.90518795798726
N          -0.10374997271679    1.10064817547719    1.41664808635505
H          -0.69006350259285    1.92878308989681    1.39236710847813
H          -0.66572875888193    0.23494726472190    1.60708117490018
H           0.31131176466797    0.95653322275866    0.44419080324389
H           0.68257878136992    1.13850815517610    2.09827207463583
