    26
        -50.45649280  Gyration_radius:  2.55165729889 Dipole_moment: 5.929
 S           0.00756680988039   -0.89442012367576   -1.73200088805395
O           1.09817453995840   -0.71973278517261   -0.75644317489884
O          -0.76015258681740   -2.08754917350711   -1.50848467066120
O          -0.74708089791473    0.33078445651656   -1.86458055630766
O           0.74216154683890   -1.09778462865641   -3.13456002967310
H           0.86041644013479   -2.04157215169760   -3.18315171434118
O          -0.86765497776349    1.21764927597635    1.56646274854980
H          -1.64766423916011    1.75670961006581    1.70346044774522
O           1.28785147499925   -0.73541734304257    1.97802845198324
H           1.30729095711450   -0.89686096817413    1.01867601942073
H           0.64465383878778   -0.02953786858242    2.11037184947506
O           0.17623450113215    2.68268833292660   -2.45405520604549
H          -0.18817889526859    1.76333047362614   -2.43126035857271
H          -0.57532564759652    3.25504348245624   -2.61724355106082
O          -0.50896189857667   -2.64301875624985    2.64526109202277
H           0.29018284522675   -2.10110687067747    2.47547945731187
H          -0.68685594079203   -2.58287458784408    3.58476011848765
O          -1.74437550339408   -1.07784197349599    0.76665085018537
H          -1.21600905086723    0.34501140904335    1.20272980480752
H          -1.49316511769647   -1.43712431928193   -0.10216304946918
H          -1.44412001055263   -1.74511633821902    1.41666472276352
N           1.11506595744315    1.78127669516736   -0.12700489343900
H           1.22533361682735    0.76221615252050   -0.44762280644227
H           1.96680922173096    2.12327973499578    0.30483443301092
H           0.83925636345248    2.33456111523917   -0.97222049653604
H           0.31854667287090    1.73740711973984    0.55741140973945
