    26
        -50.46342035  Gyration_radius:  2.49283002227 Dipole_moment: 5.572
 S           0.56899316955317   -1.97499314016347   -0.12794559949821
O           0.69642975300508   -1.51982610891374    1.24451652467875
O          -0.80070569191524   -2.02224526305817   -0.58684305886657
O           1.44998165166286   -1.21950296837637   -1.01708471784361
O           1.09779454151226   -3.46661933468666   -0.17800988204446
H           0.31822074215226   -3.94888456413081    0.07611542414853
O          -0.75382559435612    1.75661956198513   -1.61956909364610
H          -0.65221084480983    1.07464668376084   -2.32208848224441
O          -0.33318043288055   -0.53832691740100   -2.92713838840608
H          -1.06938661611097   -1.06274056662951   -2.59510975801663
H           0.42511519409114   -0.84221994501166   -2.39807666709658
O          -1.69228042089966    1.15468935187237    2.58865182924149
H          -1.90262129661916    2.08953216893948    2.55918116054708
H          -0.72332497613377    1.07824017228518    2.54599342902764
O           1.03115343632128    0.82861832036909    2.21674345483530
H           0.87323780633528   -0.09635166891094    1.87279479234385
H           1.57960897906768    0.71910412316954    2.99538935780854
O          -2.13176666649378    0.25687054886757    0.02194596959617
H          -1.73978926923047   -0.62178490309441   -0.12806359357838
H          -2.08655250600022    0.42943665565287    0.97875880188065
H          -1.39369409769050    1.33093830224633   -0.99015685113493
N           1.47496114371754    1.34244978724398   -0.43255358364332
H           0.52589574712447    1.63541131067867   -0.92846254583746
H           1.59773799455868    0.32198381577607   -0.67301220338934
H           2.25779359461453    1.89064234950108   -0.77070702819645
H           1.38241465941526    1.40431221803238    0.59473070933283
