    26
        -50.47000975  Gyration_radius:  2.46316016617 Dipole_moment: 2.601
 S           1.91355511137200    1.01332959230669    0.47490647999255
O           2.62345625472982    0.96138680814585   -0.77901168640299
O           0.79119687210066    1.92213291489392    0.48801477848782
O           1.52733186650328   -0.31180207968625    0.97964109212704
O           2.96199943136338    1.54182543555751    1.55188597531993
H           3.45621471760265    2.17326879101103    1.04017300840996
O          -2.00948681694456    0.41795412643140   -1.46488842625427
H          -2.49139057427009    0.66390923730951   -2.25532858963664
O           0.97415520946256   -2.16996012205218   -0.79667363602775
H           1.25065384930741   -1.50448432997813   -0.12232159968139
H           1.70962204983449   -2.77596907117314   -0.89373170300085
O          -1.81770493299105    1.79861459337644    0.89884212583508
H          -2.08169702487664    1.44986185059824    0.02811090624831
H          -0.89219204729232    2.08903103355213    0.76727016437048
O          -1.71568027854132   -1.99014537874478   -0.16778262873660
H          -1.98053193585149   -1.23188999491276   -0.72104070029526
H          -0.83567801704849   -2.25053653615445   -0.48696947087253
O           0.50067168134389    0.18427650727502   -2.17369692490227
H           1.25856062880447    0.63878174810267   -1.76032315432256
H           0.65269404517673   -0.75535430588600   -1.98832136989814
H          -1.04740841804896    0.43407231265325   -1.71712425054347
N          -0.95718579829449   -0.47113866892073    1.85483937351347
H          -1.34772162734924   -1.18852861818457    1.17612556097971
H          -1.10758412946397   -0.73278339314125    2.82182421380639
H           0.06944376266415   -0.37966950821231    1.63553498768331
H          -1.40529387929124    0.47381707583242    1.61004548380003
