    26
        -50.47071344  Gyration_radius:  2.4158339393 Dipole_moment: 4.156
 S           0.47367028694377   -1.90109663659386   -0.52124609321830
O           0.97823533145290   -1.72927108621569    0.84277956274714
O          -0.95967460137785   -1.74857165705944   -0.58867108709537
O           1.20588446359545   -1.07577280543998   -1.46741916264920
O           0.78139669817613   -3.40176367528682   -0.92135225165090
H           1.72134615711199   -3.38536120121164   -1.06525147733795
O           0.94156898672294    2.28574766943147    0.52782708403302
H           1.41577472254915    3.05668032495621    0.84098843746355
O          -2.20387948743705    0.50795520801530   -1.26328335926467
H          -1.91978502964746   -0.42192185531578   -1.15202553347612
H          -1.46660810541103    0.91561038073922   -1.77702768644452
O           0.16730900230019    1.34110821848580   -2.07879458872135
H           0.56958945988912    0.45461516863500   -2.00265121277307
H           0.49366387534532    1.84610076613653   -1.32211181794784
O          -1.25383539154143   -1.19345426950706    2.07573977908912
H          -0.34412953340472   -1.42429261236700    1.77541674979317
H          -1.81142396937844   -1.67603813878468    1.45509596375519
O           2.58412903789825    0.27919845371141    0.37303601375994
H           1.60601054826979    1.53521845072030    0.52120429492193
H           2.12022226146949   -0.45166154472736    0.82882971567268
H           2.47753135629241    0.02395550744002   -0.55630224937482
N          -1.52006711227353    1.25562079076878    1.11710096524630
H          -0.59336148505208    1.70837648804420    0.99930671679849
H          -2.15686521920214    1.86087125173064    1.62282771723038
H          -1.90180930669767    1.01720882098146    0.12257693525933
H          -1.40489294657300    0.32093800265961    1.61340657422849
