    26
        -50.46342052  Gyration_radius:  2.49286518349 Dipole_moment: 5.575
 S          -1.32603650889612   -1.50413780290300   -0.47070924079711
O          -0.49250048505741   -2.13350824178398    0.52831609721100
O          -2.05438922768406   -0.35463558121643    0.03454638721204
O          -0.60505321013729   -1.17250476213341   -1.69856391601691
O          -2.39843067261983   -2.59032115148390   -0.89185611629393
H          -2.55736419184509   -3.02634324873720   -0.06151728073140
O           2.47811674077281    0.32241221489512   -0.16963211363225
H           2.51429193063743   -0.58271452185742   -0.55489423858749
O          -0.42475316657414    1.92677729065407    2.64674161076090
H           0.24370319766159    2.60204559505941    2.77349774853102
H          -0.82644059372583    2.08252886567773    1.77442336772702
O          -1.44681122526323    2.13568329603612    0.08312989870482
H          -1.70261512703629    1.16983816422726    0.10543602293308
H          -2.27004219225891    2.61303760690693   -0.03296431845053
O           1.83652219364008   -2.12237231797629   -1.04371015724610
H           0.98618407474213   -1.88568031714941   -1.45376576078709
H           1.58259498766595   -2.54031139482638   -0.21412555127223
O           0.98547690344609   -0.31219961791024    1.88280969844922
H           0.40484048906232   -0.99763969488696    1.50696080717442
H           2.04006264646398    0.17047573276898    0.70884262802192
H           0.40843655841482    0.36324164007541    2.28048992122304
N           0.52165222062057    1.19794647231933   -1.56741700139535
H          -0.11641928667279    1.78964073679636   -1.01022829384313
H           1.41814398758748    0.92334774890934   -0.97315235337064
H           0.02549300211300    0.28241650131563   -1.74044538914264
H           0.77533694492812    1.64297678720756   -2.44221245638411
