    26
        -50.46379214  Gyration_radius:  2.52778562042 Dipole_moment: 3.680
 S           0.57001592811246   -0.26351925717432    0.42192838843888
O           0.34203724148159   -0.82561332058595    1.72909616571395
O           1.95028902153910   -0.04291656353282    0.07310861914200
O          -0.06586762400016   -1.27126670133203   -0.58941944175752
O          -0.23103961823442    0.98530554295669    0.25316991542118
O          -1.05933557945167    1.78399948117876    2.71280801313219
H          -0.70317956900562    1.61134070661814    1.82064831915419
H          -0.29626865966906    1.84677199181582    3.28976652823247
O           3.17611591940608   -1.24401863826520   -1.95823570373089
H           2.84630913797983   -0.78243300218557   -1.15888441206162
H           3.47953405238303   -2.10335182124461   -1.66295551931342
O           1.14275400260447    1.86179955243830   -1.87337973844171
H           2.05366128503326    1.75958450865793   -1.58288604339159
H           0.60672658671206    1.69482444307939   -1.07689602702539
O          -2.07276006490873   -0.70262353038546    2.73217145408957
H          -1.14881678145017   -0.97957959133609    2.52732113091919
H          -1.95288916686934    0.22936983876230    3.00952182981835
H          -2.48015755640320   -0.52685086530520    1.31379908536240
O           0.74070112482692   -0.57549696900594   -2.87077430238497
H           0.24385105809105   -1.02476947679630   -1.54378225894295
H           0.82881574014696    0.39596684928053   -2.72954838890759
H           1.65843222833374   -0.91342155958483   -2.82785374401294
N          -2.46576551894397   -0.28965410731298    0.23546443679450
H          -1.63362572589393    0.38135599624130    0.15113060574827
H          -3.33284241953111    0.11569461416845   -0.10239837671078
H          -2.19669502229212   -1.12049809113265   -0.29292053528832
