    26
        -50.47001089  Gyration_radius:  2.46314367151 Dipole_moment: 2.612
 S          -2.20414070181308    0.07252614879178   -0.22235204345819
O          -1.52488776549402   -0.06969892515080   -1.48861408504676
O          -2.62905574024323   -1.17134603240715    0.37054194395110
O          -1.43330740171788    0.92129053694625    0.69755894663381
O          -3.53569208495827    0.90592978363385   -0.48914071679157
H          -4.15128924214828    0.21268433590209   -0.70235116864960
O           1.91162961480820   -1.38229679891725   -0.89326630971077
H           2.38574818960992   -2.17493004877065   -1.14718915771366
O           0.82929796872307    0.53985055890447   -2.52595364750499
H          -0.10213293195898    0.27581145711418   -2.38136612078861
H           1.34436930563511   -0.19489300095382   -2.14609133481579
O           0.06405923902179   -0.28719511845351    2.48898054956936
H          -0.54936904964589    0.17809530764231    1.87141250162535
H          -0.36264366962552   -0.28250282363828    3.34652775120185
O           2.34534711462691    0.45556623602021    1.10759966052509
H           1.69420377823257    0.15345349504181    1.76238422161944
H           2.38929500393568   -0.25131730550053    0.43712114699296
O          -0.17203212433693   -2.17695752985488    0.48062908854022
H          -1.10204909749449   -1.94459467614455    0.29997008777174
H           1.06971347486684   -1.69442620513015   -0.46555207833846
H           0.01555203006840   -1.77041544777456    1.34085786879039
N           0.74898215805128    1.97436344075211   -0.34827409189108
H           0.83942210710490    1.53097336404569   -1.32240578346150
H           1.48699137214233    1.52634268354482    0.26998220423899
H           0.82736609435826    2.98401020175093   -0.37300513549218
H          -0.18537764174579    1.66967636260674    0.03199572219592
