    26
        -50.45602555  Gyration_radius:  2.61245198454 Dipole_moment: 5.384
 S          -0.96059607592439    0.26560983217324   -2.39393076117235
O          -0.82379414465034    1.13262789760257   -1.25177443785330
O           0.30565433753384   -0.09757988263657   -3.01074967162332
O          -1.76208927174739   -0.92068706919704   -2.07049280707330
O          -1.77772847861883    1.06478886778283   -3.49732811356140
H          -1.71717413925518    0.50662427298978   -4.26766911650438
O          -1.30093586448664    0.74637042757351    1.90990646063032
H          -2.16785966782702    1.10834346374964    1.72213554141830
O           0.68802354727248   -0.88430344990232    2.93799381378168
H           1.03072538686699   -0.70709836475189    3.81516901794252
H          -0.06147919684118   -0.28285822498754    2.80879572699513
O           1.60657420049795   -1.11935072833185   -1.04500104053294
H           2.17930272837498   -1.78741525189082   -1.42587616850354
H           1.16654761450374   -0.66667279140169   -1.81803469703794
O           2.31748503615029    0.48727018944426    1.10568409269465
H           1.88285662029602   -0.07511388937144    1.76760859850496
H           2.24041584643655    0.01071414297260    0.26602911457826
O           0.37774101892304    2.33723221025968    0.82227426689200
H           1.21416443787242    1.83027692161971    0.91234192863788
H           0.03903574719653    2.12762249017194   -0.06528224656259
H          -0.64504557467393    1.43874846970197    1.54770740224598
N          -0.77198718037274   -1.32122324540086    0.26671944334672
H           0.22926908537471   -1.30157031055747   -0.01035406572499
H          -1.31033653593194   -1.22107419870420   -0.65954557993904
H          -0.98916177522482   -2.18370535027826    0.75629059915521
H          -0.98960768172239   -0.48757642863305    0.87738269926986
