    26
        -50.46355147  Gyration_radius:  2.4450433809 Dipole_moment: 8.602
 S           0.53894225168611    1.47633770832983    0.25434694924994
O           0.25873483152985    0.53373240454212    1.35614795597715
O           1.81215763271868    1.20899911956294   -0.36491893285782
O          -0.58604284486285    1.50827862105356   -0.67276250243327
O           0.57668594881184    2.89513057590715    0.91551598210878
H           1.36581612096127    2.84537838256843    1.49248007615332
O          -1.90440354885928   -2.10635642881694   -0.49597071243483
H          -2.24594548324724   -2.99915765127338   -0.43713735141246
O          -0.73888627212418   -0.46665349614942   -2.59593648857334
H          -0.68369715037802    0.34915498024986   -2.07421187422664
H          -1.27303022083088   -1.08458946866015   -2.08141380550235
O           2.69363518213042    1.84574645392404    2.08839179868144
H           2.23521125453320    1.12003107558392    2.52273718621911
H           2.83200456410821    1.55182611354840    1.17372548556576
O           1.77054099165665   -1.15573152588590   -1.75695481342478
H           0.99068738038298   -0.99268880596176   -2.32071984044712
H           1.99391246251692   -0.28937857417466   -1.38040734681293
O           0.49957391721752   -2.00020923451237    0.38171108964403
H           0.53301898415343   -1.15005734129444    0.85197013490481
H          -0.94013155598072   -2.14997695053485   -0.17719560917974
H           1.07311495622605   -1.86282554369552   -0.41793816891276
N          -2.21731734364071    0.17842016528410    0.77038662311475
H          -2.30984414201579   -0.77569599300224    0.32613909377556
H          -1.88861313665087    0.85148132344323    0.02263937222192
H          -3.04888097827434    0.48183272273424    1.26426198787934
H          -1.33724382176844    0.18697139736719    1.35511369059845
