    26
        -50.46934680  Gyration_radius:  2.40572716774 Dipole_moment: 4.751
 S          -1.47183003088886    0.26208827287418    0.56963613056373
O          -1.44758792023028    0.32537225562425   -0.90293751236806
O          -2.31586845662462    1.26410841397625    1.15932624562106
O          -2.00681106011831   -1.15488191031835    0.94698261689476
O          -0.09996968901002    0.33958966907436    1.08852474341478
O           0.67817960432901   -2.07609242442562    1.78702959802753
H           0.41004569472761   -1.13748217389685    1.67203550536860
H          -0.13566408099614   -2.55014341459125    1.97276416343620
O           1.62700611585763   -2.25651551841200   -0.68112696557360
H           1.37367726410828   -2.24278276293210    0.27648637042121
H           2.22076038221837   -3.00030599650429   -0.79267790016445
O           2.10343048934304    0.49714732835822   -0.40331901244847
H           1.44240996329663    0.44439879639803    0.31677059121840
H           2.13215848229989   -0.40692261409912   -0.75173468674987
O          -0.52258465672258    3.19167177815804    0.99801585453423
H          -1.30508682331959    2.60055670360179    1.09630841213964
H           0.08395278968592    2.90113289072072    1.68434182218862
H           0.07279577066116    2.75990006021206   -0.45502942412512
O          -1.08036038369411   -2.27739627460013   -1.20085119260257
H          -0.11040397767946   -2.35888373851294   -1.13989313680832
H          -1.72957872607350   -1.74215811202828    0.19041930775475
H          -1.24660634090958   -1.37171427895896   -1.51103667147842
N           0.29618723098696    2.17917122103796   -1.31115440686741
H          -0.48135692142819    1.44922077169650   -1.32163523868437
H           1.18035057256329    1.62821296932976   -1.12775384603529
H           0.33275469760210    2.73270809823359   -2.15949139767932
