    26
        -50.45446561  Gyration_radius:  2.59475299359 Dipole_moment: 6.574
 S           0.31692875672334    1.07759916840323   -2.21686768658986
O          -1.10003234055693    0.71808490809557   -2.06808961516990
O           0.58780909525602    2.48372724679588   -2.16233883847247
O           1.13703875570588    0.25869504556655   -1.32920413268657
O           0.70480631791868    0.60600244766978   -3.69577660074275
H           0.95579096328204    1.41001299277741   -4.14153903505162
O          -1.42402661064215   -1.19823357671291    1.83939719140189
H          -2.32949501884690   -1.11228623449375    2.13863859093571
O           1.04919026468777   -2.46115015114040    1.61001980165869
H           0.17901953699677   -2.14298479011118    1.89493256964384
H           1.48049204608325   -2.81465211607111    2.38936540140710
O           2.05830786479325    0.14148463917524    1.22048720579594
H           1.92081116960413    0.33878383965177    0.28023736772763
H           1.90905368798826   -0.81381642858576    1.30565465307410
O          -1.06296199722829    2.42845428561961    0.02075157736315
H          -1.39130433981946    1.84333415766914   -0.67765610873513
H          -0.36271320478834    2.92571850400377   -0.41919200431712
O          -0.26397466315065    1.02724053735374    2.19399640142478
H           0.67061501748065    0.82689724776726    1.95319449765404
H          -0.58748251784287    1.63432520835955    1.49779034540970
H          -0.97982942685639   -0.29139195360359    2.03396753936836
N          -0.71421045505205   -1.42057024663953   -0.72530856877306
H          -1.18452150695350   -0.68607218132525   -1.32887479547373
H          -1.06319864910834   -1.38216489478046    0.26934893109766
H          -0.77074638685378   -2.35861864046227   -1.10598105609922
H           0.26463363118163   -1.03841901498553   -0.77695364185091
