    26
        -50.46355156  Gyration_radius:  2.44516694924 Dipole_moment: 8.600
 S          -0.27048387212120   -0.24905815305995    1.54887396459575
O           0.92280858658332    0.44820101768017    1.95609762228734
O          -1.14484408367555    0.60354779878415    0.71837573661288
O          -0.02492871675930   -1.51812936956676    0.87419664825349
O          -1.11557001693532   -0.60604592239231    2.81761974309866
H          -1.21875575720536    0.26041515755536    3.26122105706692
O          -0.04374613874563   -0.49722983314855   -2.83943146973992
H          -0.06900034263525   -0.24822722692601   -3.76385415251645
O           2.58820895092897    0.90843786189717   -0.17625717719914
H           2.19147531928522    0.81485367413495    0.70472604520219
H           2.66110539133345   -0.00267090338011   -0.51849001865897
O          -0.88012729435132    1.99190395986798    3.20776840533382
H           0.02751357420190    1.76740966085751    2.94696283512670
H          -1.31682059187036    2.27058312461884    2.39718759057658
O           1.95777365974116   -1.60623595346588   -1.04473822707719
H           1.39420536487061   -1.39627441297389   -1.79982997206176
H           1.36724913011573   -1.71552299295537   -0.28305175643774
O           0.33531127599677    1.55959985285992   -1.36077051535016
H           0.15490910231646    0.35460535437556   -2.32144775329083
H          -0.22894070497228    1.39133905681258   -0.58723751310616
H           1.26234307390938    1.47498224278305   -1.01341001337615
N          -1.75521933755096   -1.22576383285571   -0.97873594237856
H          -1.83356863247432   -0.32216269637858   -0.43637158272146
H          -1.21959340229483   -1.03212740202606   -1.86858528522805
H          -1.10285170793198   -1.72632075584835   -0.31253636731888
H          -2.63845282976619   -1.70010930728209   -1.12828190171110
