    26
        -50.46898062  Gyration_radius:  2.55779632153 Dipole_moment: 1.091
 S          -1.75059043829934   -0.52213889756820    0.84662868364205
O          -2.25065457960348    0.83537257256551    0.82094379973699
O          -1.86158883060959   -1.17614875777763   -0.45063160135392
O          -0.40216453688324   -0.62450540748164    1.38229258123926
O          -2.68702926738056   -1.32003362182138    1.84509868793315
H          -3.52203468731818   -0.88237806444906    1.71696882095433
O           3.29054698406528    0.51462094422686    0.11379226102662
H           3.90870526025204    0.61507612990295    0.83839109770967
O          -0.99971666589505    3.19082729195510    0.87419254355241
H          -1.53576052576674    2.37365443021391    0.96186158067629
H          -1.51698949196982    3.78400406782791    0.32706401668387
O          -0.48131193715831    0.37253799009775   -2.16201654486812
H           0.04351154014043   -0.35938974619210   -2.50643253313387
H          -1.18351791982345   -0.05696512378613   -1.63640731404036
O           0.23187813130768   -2.38446668624700   -1.55971610530718
H          -0.55965273395042   -2.02074573878703   -1.10480976562793
H           0.03898214335753   -3.30651712731291   -1.73392795630874
O           1.95014498185632   -1.74305084668220    0.48429500758514
H           1.54000653184813   -2.04890516510101   -0.34390662028185
H           2.90658590943796   -0.39471235500134    0.20571477480787
H           1.19701034987984   -1.46599111127205    1.02965507609275
N           0.74969654433191    1.34788518877753    0.00814848392314
H           1.79130922857415    1.27966627117673    0.02397475475974
H           0.36253217103563    2.26201822879821    0.30819465885931
H           0.37806273814977    1.10811786108166   -0.94370261575213
H           0.36203907045837    0.62216768287828    0.65433424747440
