    26
        -50.46898118  Gyration_radius:  2.55793441361 Dipole_moment: 1.086
 S          -0.38188290462226   -1.88878281004975   -0.58641701859806
O          -1.62987637240703   -1.22571348258366   -0.94082515370207
O           0.59122908708930   -1.83414832066889   -1.65586339004527
O           0.13699209454178   -1.40556846498608    0.68354911897391
O          -0.71990448355839   -3.42210983467844   -0.37402577907959
H          -0.62430584529316   -3.76350476933480   -1.25689470168122
O           1.25406897665690    2.22243847403635    2.14401556161234
H           1.87036155685567    2.14501308946596    2.87303390107328
O           2.81928193020895   -0.39883811888853   -1.95604445882300
H           2.88001502394929   -0.18946678710525   -2.88941733857543
H           2.08018302704722   -1.03908650116854   -1.87441851379161
O          -0.96881039467553    1.30743669343481   -1.55460817100160
H          -1.62415404959133    1.69482559652601   -0.96289579481983
H          -1.20086970906002    0.35929079007549   -1.58847084054156
O          -2.71166485189504    0.59527871686410    0.66747478770970
H          -2.35839864714674   -0.14349330664314    0.12417565129531
H          -3.59634271540260    0.33546714997380    0.92755983305762
O          -0.69512498272139    0.46586119858884    2.52686136840821
H          -0.35556337189929   -0.33707480236402    2.10110095027051
H           0.47517010961946    1.65779600299267    2.38321662172819
H          -1.48227059002076    0.69458259501492    2.00166042722060
N           1.27149883265951    0.85568101349661   -0.15685509174067
H           1.47077929047551    1.51018100805943    0.63167862619851
H           0.93645515994906   -0.05070543048910    0.24396360053415
H           0.48064485703913    1.21577684590382   -0.74550783009086
H           2.08248899225859    0.63886344454150   -0.76604637553486
