    26
        -50.46282810  Gyration_radius:  2.50942635351 Dipole_moment: 5.047
 S          -1.95823520100279    0.75860335846425    0.29770832687194
O          -1.51610859636513    2.12162386655640    0.47833610981070
O          -1.26368748043688    0.04828871001186   -0.76292738818760
O          -1.92485537702103   -0.00666543689806    1.54364077539194
O          -3.47741839617044    0.84241152872018   -0.14252497796373
H          -3.75169820256993    1.61578131090587    0.33820609200978
O           2.16175819932996    0.41439276561455    0.51789716492935
H           3.02810278307542    0.72432250126628    0.78368162372957
O           0.04000502465811    1.29436244041055   -2.76058088677672
H          -0.60721640181989    0.90596616163489   -2.14178166258734
H           0.55936831171697    0.55460331504792   -3.08608751505853
O           0.97686719181387   -1.34288860947489   -1.30734788446945
H           1.60729137339480   -0.78082844285574   -0.83251008297809
H           0.11539810741991   -0.89798871585967   -1.19379300029194
O           0.40501457250098   -3.21538879693422    0.44415830942098
H          -0.46722062443851   -3.53807742227423    0.21099171471509
H           0.70641861645884   -2.66608430547593   -0.32721442051352
O           0.93967863112003    2.42942293111568   -0.46461009593973
H           1.68350262732121    1.22883261639206    0.13849020565630
H           0.75885992862270    2.21461587501384   -1.40154488596446
H           0.05064373642717    2.44934378556985   -0.05185465613212
N           0.39870777274075   -1.03185928913709    1.96485111219059
H           0.39959048594814   -1.97439238775619    1.48458512581317
H           0.59596115253786   -1.12603770202925    2.95524407558109
H           1.11356669364629   -0.42873568406905    1.49561403839563
H          -0.57429492912938   -0.59362437379015    1.81937280236978
