    26
        -50.45718472  Gyration_radius:  2.60324392832 Dipole_moment: 5.468
 S          -1.48530918944260   -0.29829761188918    1.52765632643785
O          -0.63365091345877   -1.40533019885529    1.95548726425988
O          -0.90586851505856    0.98324071012771    1.92985581867330
O          -1.81065827911640   -0.35245042715151    0.12702398171513
O          -2.84125698835775   -0.44715595828705    2.33253189702270
H          -2.54237681319084   -0.55882479130192    3.22954656122158
O          -0.17065605461931   -0.76029394950178   -2.25457139637513
H          -0.94603810566047   -1.28890847397466   -2.04407384910899
O           1.68202056573856    1.13738172927338    1.53874542225343
H           0.71692266710073    1.11419992954633    1.75744605324738
H           2.14480372641273    1.09533577211209    2.37661581945805
O           2.20081713253006   -2.34714591581133   -2.11059021754086
H           1.45935055011219   -1.83783711585156   -2.46839336186033
H           2.63609463762184   -2.76324427310536   -2.85510023574108
O          -0.27284934117964    2.94954493332866    0.13100776895894
H          -0.67884799960436    2.37491381851468    0.80326019494285
H           0.67480580569197    2.86697288582860    0.26666100596821
O          -1.42360874600430    1.48023610699722   -1.84445897325329
H          -0.97892040914401    2.18217570309323   -1.33360748765567
H          -0.52887167706572    0.17165898186023   -2.26235210169353
H          -1.86945758725864    0.94546389445956   -1.16628939532926
N           1.13291859054627   -1.05759162641954    0.07516411793036
H           0.58141298128031   -0.81938341129169   -0.79396456266450
H           1.81561785646305   -1.76546941449258   -0.20314044479992
H           1.58815832547472   -0.20886540125001    0.46748511973973
H           0.45544775013924   -1.39032591594033    0.81805469414632
