    26
        -50.45446546  Gyration_radius:  2.59506181127 Dipole_moment: 6.571
 S           0.32995183468569   -2.33032749041957   -0.80061993412804
O          -0.42278905570176   -2.67621286418310   -1.96988880568373
O           1.55801972638729   -1.56748068014026   -1.06181817037475
O          -0.44261783267863   -1.68878647698365    0.25921599329130
O           0.83482421066281   -3.71212448767164   -0.17061605345175
H           0.51941461963969   -4.37712141132671   -0.77594282104652
O           0.79290397038298    2.45131659989679    0.46104732102324
H           1.37364625316178    3.05963815069659    0.00337209230665
O          -0.01560025289545   -0.05448763522784   -2.65064388889691
H          -0.57592283436110   -0.82456528440944   -2.80547840142818
H           0.77420699907995   -0.43428032318620   -2.23839667741292
O          -2.28089315493052    0.26053847473836    0.69203423657439
H          -1.82531344559753   -0.56861627320003    0.47587690329047
H          -1.84967920135718    0.58653689421693    1.49820458895296
O          -0.68144203416003    1.52652779624239    2.63673529984888
H          -0.20691902625176    2.06028747801941    1.98132230730383
H          -1.25101762744943    2.12739950070211    3.11929726912869
O          -1.12002363160077    1.86702389638728   -1.09608659305448
H          -1.71028520254013    1.32509019145158   -0.52211930668472
H           0.01494200091741    2.26945051394072   -0.18621382429019
H          -0.76760069834713    1.24658378739233   -1.76582600295556
N           1.41944715704528   -0.08506991963192    1.01421004505982
H           1.80934758198913   -0.58853369106002    0.16636254488880
H           1.25479483684605    0.93708829369624    0.81283279785527
H           0.49921035803353   -0.59285240812874    1.06739517989905
H           1.96939446904412   -0.21702264181672    1.85574388998702
