    26
        -50.46934682  Gyration_radius:  2.40571317588 Dipole_moment: 4.749
 S           0.92290759318192   -1.29067225563203    0.20172540565573
O           0.54823861170850   -2.23269466157590   -0.98511080735475
O           2.13903917438812   -1.75169416788597    0.81219169951070
O           1.08224400434399    0.05314885047391   -0.36922274432323
O          -0.22437778645701   -1.30165978037455    1.12734810443001
O          -0.50330618095941    2.13583461728642    0.13326588409736
H          -1.29409012231763    1.86395871730002   -0.35688213412745
H           0.18692939799662    1.51887620564958   -0.18493310783903
O           0.11910847138148    0.05098715336361   -2.81923268028568
H           0.61100439978953    0.09010692976594   -1.96921970779624
H           0.17991494105146   -0.86374190598379   -3.10416911756699
O          -2.16243959947118    0.80159175991868   -1.69848324937022
H          -1.33380338920150    0.60132804075043   -2.20311616266562
H          -2.79754781548417    1.12435801032477   -2.33932748177921
O           2.69857361027553    0.55285435003520    1.96675911148151
H           2.61676798303137   -0.37254649339568    1.63768017490914
H           2.95152935328288    1.06065374591733    1.19118742635110
H           1.16551584233941    0.92666941313091    2.36927172196947
O          -1.99925960174857   -1.78983496616111   -0.77256662772811
H          -1.70413765467679   -1.67168411494282    0.14563860235669
H          -2.20770592446605   -0.89413044000387   -1.09731108861411
H          -0.44582751739606   -2.18403500816958   -1.04565858240937
N           0.10727504835265    0.92296522597859    2.38627263300023
H          -0.14030606476086   -0.04554529983221    2.01444500172410
H          -0.24759536161970    1.59322539176763    1.64896593708219
H          -0.26865141254321    1.10168068232892    3.31048179927211
