    26
        -50.45718427  Gyration_radius:  2.60340284962 Dipole_moment: 5.473
 S          -0.44846602056037    2.05572303457263    0.45371909611139
O          -1.69281010046726    1.39237499158438    0.84258166724161
O           0.56171841989573    1.90912218822615    1.49874492649603
O           0.02447180856956    1.64639096861935   -0.84216204128324
O          -0.77480452708462    3.60327233500002    0.36930138555757
H          -0.92077583874300    3.83706143793804    1.28060625193354
O           1.43839449866324   -0.74346110618813   -1.75304492091981
H           1.75017240664835    0.15182050747828   -1.91498651066691
O           3.20665261883887   -2.12671984078446    0.01412225403024
H           2.74669350718630   -1.85168552825758   -0.79215712097216
H           3.90198791641495   -2.72750478305247   -0.25508431759372
O          -2.83084731092719   -0.60818600775880   -0.64263275628789
H          -2.66247992119634   -1.28886260964011    0.01426020090324
H          -2.57937034615097    0.22888598978148   -0.21467269616107
O          -1.33051496962241   -0.95666967092901    1.94833930387478
H          -1.50469246374856   -0.90789894726882    2.88920156231332
H          -1.52192653039620   -0.05498074466247    1.58731695545473
O          -0.96612326399991   -0.19830125615044   -2.57664579844437
H           0.52097358442333   -0.73720411314615   -2.14720600725254
H          -1.72701424598891   -0.52175157245736   -2.05902156339011
H          -0.75924994960479    0.66179365831228   -2.17389329494507
N           1.12413444109841   -0.56334394993388    0.90867679004238
H           1.97476102240849   -1.04229162724538    1.21138736382852
H           1.11400329704258   -0.61486620261837   -0.14656131256116
H           0.26802134316259   -0.99895137592741    1.30734407722313
H           1.08709062414146    0.45623423451299    1.19246650546349
