    26
        -50.45718431  Gyration_radius:  2.60301965838 Dipole_moment: 5.482
 S           1.16180173097040    0.52776054137168    1.72969915281956
O           1.30962753585723   -0.92735870386890    1.71035414197866
O           2.06775011772176    1.15031863426593    0.76753456910080
O          -0.20287764467184    0.95549920094281    1.57040346394757
O           1.64182445554928    1.00641793979561    3.16112409884212
H           2.57904782744939    0.84117960733567    3.13390938909054
O          -1.92370246205643    1.17498649560108   -0.77185465626953
H          -1.75240621482582    1.89462559363496   -0.15709935724808
O          -0.79848564242140    1.74761410525871   -3.33527973307918
H          -1.44531441513603    1.61860331453387   -2.62668988078045
H          -1.27410528568803    2.11391062160811   -4.08127279670179
O           1.50082082629327   -1.93587456316430   -0.70236754425815
H           2.39938111228399   -2.22384821647673   -0.86852281008865
H           1.48741618983796   -1.60399599858538    0.23007785321900
O          -0.76845086697374   -2.62428122198064    1.15754676159877
H          -0.39964070010583   -2.91591042841362    0.31957588612390
H          -0.07581819055092   -2.07566924906506    1.56537151774406
O          -2.46230504068967   -0.49882430673409    1.14354637901227
H          -1.78466575791655    0.02588290052865    1.60185668577294
H          -2.27729918328799    0.45326370590306   -0.17976882106590
H          -2.08019101444398   -1.39562594164703    1.10919396753180
N           0.62865482020080    0.53944436868283   -1.31399823312032
H           0.72603401187737    0.99139558254951   -2.22550983249173
H           1.25730155815539    0.95089502664491   -0.56752512292760
H          -0.37535311520497    0.68294791151977   -1.01749843306494
H           0.86095534751982   -0.47335691997105   -1.35280664574064
