    26
        -50.46006490  Gyration_radius:  2.53419253336 Dipole_moment: 6.086
 S          -0.02513266990937   -2.18875928399978    0.19027397301383
O          -0.39418502090784   -0.95500079606693    0.90161572125294
O          -1.15576373123430   -3.02275701550060   -0.12015537760555
O           0.87048341361040   -1.87073837971244   -0.89921028545023
O           0.84988603701922   -3.01818908717095    1.24238816230366
H           0.28646712990561   -3.74837406547793    1.48034303850538
O           0.23785447018928    1.89350670650843   -1.43766926008034
H           0.43566095976463    2.50198485507432   -2.15017171918510
O          -0.95905793784416    1.73586420908211    1.15219492739011
H          -0.76818455507013    1.95383658680694    0.22858721677468
H          -0.95704570874895    0.76746363014014    1.19501393940851
O           1.41887590480254    2.24586465790226    2.27985885934773
H           0.46888201256615    2.13361592020835    2.03559187128493
H           1.55102821006394    3.18082690045733    2.43855374965919
O          -2.72020039569519   -1.00219021235443   -0.89144083442273
H          -2.30111100421471   -1.84945050234311   -0.64756934431121
H          -2.76180561804985   -0.49057929623956   -0.08031088788076
O          -0.64541255355805   -0.28796460992852   -2.44736094197270
H          -0.16463812941447    1.07472713270120   -1.87715504326276
H          -0.04225257386898   -0.94761481120782   -2.05456511005376
H          -1.52317380103356   -0.48997904323333   -2.06129901936138
N           1.69935680459277    0.47881136635432    0.30436837692090
H           1.92714269214762    1.10412584131927    1.10486080459150
H           1.31281855815249    1.06488219234560   -0.47547739329989
H           2.46473506060747   -0.10761641629065   -0.01291295522463
H           0.89477243610587   -0.15629647935360    0.60164755165264
