    26
        -50.46282838  Gyration_radius:  2.50890139016 Dipole_moment: 5.044
 S          -0.77657369322281   -1.91926417521811    0.45650476261259
O          -0.14403407029868   -2.55985692432350   -0.67276130856594
O           0.10103276391213   -1.85911799045937    1.62504844833305
O          -1.32995672573719   -0.60899940488052    0.15865598333284
O          -2.00191733371129   -2.83958121719908    0.85671511067599
H          -1.64873197467251   -3.69659842474201    0.64431276425713
O           1.74730647942220    1.00842359539040   -1.02337022805297
H           2.51963253797152    1.29639356847142   -1.51108411456741
O          -0.69294591798754    1.99696669198401   -0.07968165725030
H           0.14867758134254    1.89153436523715   -0.54803058580311
H          -1.02938639307241    1.08729699366978    0.03082667145720
O          -1.94785599599410    0.18872930054355   -2.33665939764262
H          -2.03036166302273    1.13248442162304   -2.17735689939763
H          -1.89879083706021   -0.22175893937438   -1.45257498417227
O           0.03756231880268    2.17902141855173    2.43706758453549
H          -0.71395065793439    1.88095558605958    2.95243874429275
H          -0.30202211888377    2.30970195066574    1.51230210042444
O           0.59430669520468   -0.75557527108465   -2.46515535168117
H           0.40623467499644   -1.51901559803839   -1.87954224930395
H          -0.29157574806465   -0.40267085332385   -2.68245625330629
H           1.30428697642438    0.29994926440849   -1.60451443970029
N           1.61310839739870    0.22336612743413    1.55748065817193
H           1.76231406207171    0.48834751492684    0.55622259371519
H           2.49779890034123    0.06214712305945    2.02649190802036
H           1.07034846544116    1.00213118900114    2.02444982131869
H           1.00549326633111   -0.66501029239070    1.59467032829975
