    26
        -50.46282815  Gyration_radius:  2.50854991317 Dipole_moment: 5.044
 S          -1.55190594358452    1.35827793824499    0.49026089032320
O          -2.27740311961182    0.74111418647981   -0.61963334623007
O          -1.84624363340836    0.72907300636662    1.75641371465947
O          -0.13257953803932    1.44924867493015    0.19203300267868
O          -2.07886520444688    2.84765354919642    0.60424594952990
H          -2.83709611684744    2.71918774164058    1.16371201705709
O           0.67898908020054   -2.12435765096742    0.37969365337046
H           0.85872979372411   -3.02546215641766    0.64971732039762
O           1.77466953277879    1.33114123069054    2.08789018979593
H           2.53579525723159    1.16923930860750    1.52438207234397
H           1.04782053603066    1.56964300478722    1.48188117379666
O           0.84017153787701   -0.18191381354015   -3.15340867590705
H           1.44385437440764   -0.07903176777047   -2.37080640848823
H           0.63221356422305    0.70828309210622   -3.44245457957125
O           1.96079171374924    0.06857664810425   -0.79068297153203
H           1.77740314133378   -0.78269522764414   -0.36583482098582
H           1.25751208196656    0.66269164135393   -0.46630274835099
O           0.16768749980316   -0.81599112912687    2.51209744037954
H           0.85513338256970   -0.12432531236696    2.58715558492148
H          -0.65568429821077   -0.31191512769954    2.34149515856940
H           0.46768892425530   -1.61816508140681    1.23702526583623
N          -0.99284859416647   -1.27911212391840   -1.56640976323909
H          -1.61920506150783   -1.97523070642125   -1.95607921281218
H          -0.33902942133498   -0.89872975519656   -2.30594697926813
H          -1.55682535617471   -0.45059034138848   -1.17219215227246
H          -0.41077409289589   -1.68660982876845   -0.79825178496678
