    26
        -50.46547923  Gyration_radius:  2.52074115105 Dipole_moment: 1.452
 S           1.57158974387632   -1.34545080427756   -0.12043979349417
O           2.43221468077116   -0.45086511745184   -0.88576072813871
O           1.23302059845761   -0.79284308281498    1.17164796439314
O           0.40934057665854   -1.77466138093464   -0.88219413488028
O           2.40914411138731   -2.66271715845559    0.15927479966690
H           2.99887446786996   -2.36856646385398    0.84534887336350
O           0.71839121415785    3.02319923547121    0.81410203866769
H           1.50297429028570    3.10197859655666    1.35897354823239
O          -2.66377151295547   -0.08616670758874    0.49467988799500
H          -3.53862744564261   -0.06215717617373    0.88401559082476
H          -2.32813536263968   -1.01009105685859    0.60427801673880
O          -1.15456221473637    0.19044911615678   -1.80489892783114
H          -1.80606805381126    0.25077021750259   -1.08731556960916
H          -0.64160955559516   -0.62122768786874   -1.61360932194797
O          -1.62749991787877   -2.52851566150255    0.59348088333599
H          -0.78725738866317   -2.29191141932182    0.13854997023571
H          -2.01507064362597   -3.23279750423734    0.07021764765513
O          -0.56475946611772    1.04993417332521    1.90696403969065
H          -1.36446690872241    0.75113223527186    1.44320114276174
H           0.09353285293688    0.34225010702896    1.76144715274186
H           0.14291785974867    2.34937468314565    1.27985727918954
N           1.00303833592521    1.65556270935074   -1.43839025902706
H           1.66470362866139    0.84796875018625   -1.23445038531202
H           1.32817370450070    2.18965912583535   -2.23693770386736
H           0.06155175429123    1.20742317604575   -1.64417627042997
H           0.92236061085834    2.26826909557947   -0.57786575096852
