    26
        -50.46934678  Gyration_radius:  2.40572840591 Dipole_moment: 4.748
 S          -1.38591813650056   -0.79882142612166    0.01645737241771
O          -1.50467850524104   -1.35258463010273    1.47106048706877
O          -0.00847772342440   -1.06557772977242   -0.41804430325356
O          -2.34221949991580   -1.46126338892835   -0.82668428014495
O          -1.60481814949011    0.65658565510654    0.10005499323764
O           1.41863862694904   -1.76980075194673    1.67887370243345
H           0.92116811044844   -1.64412378276200    0.84053434817162
H           0.77906712126232   -2.12376938839204    2.30119663395650
O           1.83730533531469    0.79322377526112   -0.91038042819025
H           1.32663139995411   -0.03249668765351   -0.78516515578466
H           2.02565266916803    1.08352862276976   -0.00494818130823
O           1.99056866178895    0.80920242532813    1.89365599394723
H           1.89182703065305   -0.17501148656686    1.83923855568393
H           2.71933470227261    0.97471803276827    2.49340386175257
O          -1.10411878475441   -0.86944568948702   -3.07925267696512
H          -0.65500354619226    0.63450601952381   -2.64531051649447
H          -0.34761478086084   -1.45691308249517   -3.00266948244246
H          -1.69937990553063   -1.13942454424370   -2.34155571351242
O          -0.68144976384289    0.84817280903406    2.57160552617059
H          -1.10350781460507    1.18118478970050    1.76222584369263
H          -1.21635553503100   -0.59824391312537    2.05576983931217
H           0.27757503567576    0.95196663154292    2.42783854282387
N          -0.43499095901081    1.47789143630303   -2.04491995910511
H          -1.00926881204517    1.30704189278002   -1.16257444485500
H          -0.66200304173149    2.35295392345750   -2.50341450467289
H           0.57203628469401    1.41650046804588   -1.72699605393681
