    26
        -50.46245850  Gyration_radius:  2.53036748836 Dipole_moment: 4.465
 S          -1.19543284736094   -1.09862425400917    1.55292806046416
O          -0.85599407555042   -2.41103000393852    2.05660087470486
O          -0.25020397625422   -0.06764944580331    1.91424423734974
O          -1.42163210843749   -1.11798958317581    0.10016028290960
O          -2.58383943033108   -0.69563065970106    2.20200559756210
H          -3.11325610214020   -1.48489031032049    2.13321818681948
O           1.72798616320862    1.66358885966436   -0.69280217059234
H           2.47436893464991    2.02216077036485   -0.21221345410610
O          -1.89603859758987    1.10245834630489   -1.36162605404316
H          -1.93596240951057    0.26633993321520   -0.86636615896348
H          -1.22923326839482    0.95686270588906   -2.05183388435696
O           0.40105560114416    0.88259371405286   -2.99379896265262
H           0.29592697582923    1.50169110847754   -3.71755703205905
H           0.95096310375416    1.32436122746576   -2.32791404035406
O           1.71690700942184   -2.06254002634104    1.69489623712497
H           0.80725416588757   -2.39133898548370    1.88381511947196
H           1.80632619161942   -1.30013426334417    2.27483107690029
O          -0.41302022493997    2.23115993986893    0.56326382442539
H          -1.09501123138886    2.00495138954155   -0.10908465503458
H          -0.41881662917890    1.48282742672572    1.19377642805773
H           0.89499010201804    1.97798597608381   -0.18980253311806
N           1.08445665856188   -0.96207298417076   -0.63025664768245
H           1.39324651254360    0.04123740377639   -0.64498240891636
H           1.32060078507779   -1.41106683537312   -1.50998914723581
H           1.49833837038979   -1.45664345880602    0.21056653820413
H           0.03602036697792   -0.99860800089434   -0.47207930489641
