    26
        -50.46547915  Gyration_radius:  2.52062427188 Dipole_moment: 1.449
 S          -1.41735567790360   -0.11811839327260    1.50673440266950
O          -0.82427148439851    0.94446110751201    2.31041687789741
O          -1.82807421304627    0.35659860250551    0.20464611803778
O          -0.57008498484197   -1.29863293728837    1.44494819559386
O          -2.73780999937763   -0.57883744215555    2.25444080028419
H          -3.32951515469808    0.13764207497598    2.05072042204643
O           0.74989911165831    2.93138821860148   -1.07745432423728
H           0.03940140772532    3.56874413873027   -0.98999703523322
O          -0.99885292674707   -2.82378306333233   -0.64890848906630
H          -0.96715865301144   -2.22237897247743    0.12975728999446
H          -0.84093848280290   -3.70385746534654   -0.30190207070434
O           1.89423921947842   -0.89596080473523    0.48402233588879
H           1.07023813607227   -1.17875306499373    0.93081463365292
H           1.75528135093254   -1.10392073666085   -0.45430733647323
O           0.91105437270251   -1.57729926860101   -2.00822546075065
H           0.16676901956658   -2.06880752434195   -1.58077606067951
H           1.08508973101604   -2.01186069066643   -2.84391201187286
O          -0.44850540220598    0.83975111500760   -2.03856288122248
H          -1.05626119794540    0.66059926851585   -1.29435573801789
H           0.34480757210131    2.15233532308459   -1.55814872085649
H           0.09261139750158    0.03722440960890   -2.12229630686094
N           1.39854148006048    1.60954239262121    1.12650413189753
H           1.75068564114946    0.65551039538698    0.81770921217601
H           1.18621257415008    2.20112455422498    0.27364232865310
H           0.49645200904190    1.42197347547795    1.65808732573435
H           2.07754514376432    2.06531526765102    1.72640234139744
