    26
        -50.45602562  Gyration_radius:  2.61287624964 Dipole_moment: 5.394
 S           1.92005737406474   -1.44782323801138   -0.97230187491078
O           0.48135305589932   -1.50704155972329   -1.00914070009478
O           2.48112956030366   -0.32796300609653   -1.71169932950818
O           2.42077470986056   -1.48769801845551    0.40688274238630
O           2.46419158639273   -2.76298018617040   -1.67839124240816
H           3.40246755988267   -2.60883122763230   -1.74417712060581
O          -1.82174290895111   -1.06299143906640    1.20456219040348
H          -1.76816504982305   -2.01372313103709    1.30994616790465
O          -1.97822957207526    1.63397450969583    1.81776354687311
H          -2.12293373083595    0.67882302187535    1.73468071818422
H          -2.83483106350423    2.02443062370534    1.99679665617251
O           1.29002515181496    1.68543462385827   -0.64899054563563
H           1.90751004895759    2.41689735764485   -0.70430589057816
H           1.72050642271304    0.92964042191178   -1.13829265556277
O          -1.46029702121197    1.96116587050346   -0.92422975837370
H          -0.49668639756598    1.94933682984824   -1.02087212540653
H          -1.62790332635553    2.00604767888434    0.03139449686440
O          -2.04088348250516   -0.64304515251522   -1.30695388626693
H          -1.99850553204724   -0.92026120668812    0.21007784258467
H          -1.93012879378780    0.33181389380540   -1.35258121743291
H          -1.15704841274664   -1.01428418477057   -1.47241123402457
N           0.62411050555211    0.04436262747747    1.42057651341862
H          -0.31951654784304   -0.41615057532832    1.30808462219246
H           0.74023418104895    0.38414220002186    2.37019574847449
H           1.38718460930374   -0.65766513297152    1.13292673073381
H           0.71732709345784    0.82438839922747    0.74045961461466
