    26
        -50.46245825  Gyration_radius:  2.53065156577 Dipole_moment: 4.455
 S          -0.09925331054055   -2.11385092378425    0.75407709110299
O           1.14677799535382   -1.51867651430975    0.32960247245229
O          -0.13286776070939   -2.47307700313757    2.15449737251610
O          -1.23984074186782   -1.26247160719108    0.38532548881160
O          -0.27283975144856   -3.45429643606421   -0.07352231189754
H          -0.96190990507427   -3.92601719066540    0.38536208838856
O           1.24510390915281    1.99091887610755   -0.84897112877038
H           2.16335088127223    2.24215797589057   -0.74706219274031
O          -1.54660550553018   -0.16203622937533   -2.06211697990494
H          -1.70347606511012    0.75385744043235   -1.78139861477951
H          -1.59560116096515   -0.68984613186093   -1.24670829948176
O          -1.44829677220114    2.52653214816139   -1.19693842706023
H          -1.73401535156948    3.07118998530894   -1.93170340041253
H          -0.47836039267181    2.52586109994583   -1.21238308744195
O           1.25280093137457   -0.37338167741165    2.89195850837726
H           2.03775124969381   -0.57373489421032    2.37290854512355
H           0.71484495585673   -1.19637906914592    2.82460033044998
O           1.13042593452864   -0.26289983355653   -2.02799261830401
H           0.17490410739112   -0.31013890545937   -2.25856163300427
H           1.25152325646984    1.12120605415895   -1.38697533109011
H           1.23340032727225   -0.84503415859953   -1.24816173713448
N          -0.23374227104678    1.01215102262814    1.19251674310886
H          -0.74378816282372    0.16845147353532    0.80040727094329
H           0.37382030978331    1.42377896547315    0.44186052170194
H          -0.90210323829091    1.70445962689532    1.51704367208457
H           0.36799653169938    0.62127589624109    1.97233565696057
