    26
        -50.46282831  Gyration_radius:  2.50891776274 Dipole_moment: 5.046
 S          -0.27716952472036   -2.06013668611567   -0.41845884275703
O          -1.22423258156410   -2.03151872231760    0.69578928551670
O          -0.91874997906474   -1.82404462650731   -1.69061811243807
O           0.85450491302509   -1.18687919476624   -0.15663060155631
O           0.30257186346646   -3.53269692637640   -0.48312946348448
H          -0.35674514476230   -3.95250576802091   -1.02481098942265
O          -0.88491953205553    2.03403356012734   -0.44541207391520
H          -1.34156313548219    2.82240917677407   -0.74073803329607
O           0.52591992714329    0.79902476907144    3.12616781164623
H           0.95516051980066    0.00242666018058    3.44300183531065
H           1.04568524113403    1.08947819326734    2.33053039796346
O           2.20158797516075    0.09145896386999   -2.10517454411625
H           1.81451466176268   -0.54457739106453   -1.47425386913474
H           2.67400459916459    0.73168959516251   -1.56687446998517
O           1.52669850500624    1.26166769973020    0.74180915545860
H           0.82747275805790    1.76780306282938    0.30168771164119
H           1.38666669303604    0.34110031686377    0.44897591603460
O          -0.42340018019855    0.63755104052535   -2.53275185434731
H          -0.71081785280069   -0.27732900176854   -2.32901102187853
H          -0.71673528805340    1.48374323704406   -1.28494106801657
H           0.54884239346956    0.56609686120648   -2.61130185478087
N          -1.58261964755211    0.36635478698674    1.56161447817804
H          -1.46352734334941   -0.64150257332776    1.20135030701117
H          -0.83737801157530    0.53504452725195    2.29324985150791
H          -1.41470827912242    1.02951813939280    0.76983062596973
H          -2.51106353992550    0.49179028015354    1.95009943290627
