    26
        -50.46282821  Gyration_radius:  2.50862512977 Dipole_moment: 5.042
 S          -0.44604577537143   -1.93510507543557   -0.74171347099282
O           0.08024734112507   -1.66576374520901   -2.05936761207439
O           0.58645812962989   -2.39553236809967    0.18623925534029
O          -1.19912862322085   -0.83166120162324   -0.16985458695449
O          -1.46977849151218   -3.13177954019940   -0.91138507642541
H          -1.05002332338597   -3.61866048539975   -1.61225268052724
O           1.42801531879806    1.72787084513193   -0.30453295146177
H           2.07403341300723    2.38663359915515   -0.56133384883967
O          -2.29396818550846    1.12423590336357   -1.65989095877245
H          -2.05657795708731    0.29679929579545   -1.20002416471609
H          -2.46745807447289    1.76378902400606   -0.96425852020605
O          -0.94276387151861    1.49598184728942    1.16084899633063
H          -1.13976677805254    0.64582013185525    0.72357416773771
H          -0.17652792572757    1.84582408931198    0.68200110917004
O           0.13496350673265    0.32327196273661    3.24989723360833
H          -0.48524531075299   -0.35609498646357    3.52022792090422
H          -0.35573923656661    0.89718951799250    2.60387504102723
O           0.29586384860883    0.94407330904429   -2.45492956391594
H           0.99272993632915    1.41824357285800   -1.17087705979535
H           0.29941172430064   -0.03604988680718   -2.43270343992647
H          -0.65044610721030    1.17728784158083   -2.37328347871462
N           1.79183168164885   -0.41308390285234    1.30200745674982
H           1.31551408848396   -1.25647869832370    0.83117272414477
H           1.75056880130105    0.40456248058710    0.65036995459436
H           1.23249171178424   -0.17100263531383    2.16667928116064
H           2.75134011858718   -0.64037090499022    1.53951426251393
