    26
        -50.46299582  Gyration_radius:  2.55179222201 Dipole_moment: 3.509
 S          -0.01644550848955   -1.66466529036066    1.09973578312550
O          -0.07487488805552   -1.71637763708315   -0.34645266717548
O           1.35518743097072   -1.56044051161426    1.58410105363946
O          -0.87785977023535   -0.64415240912151    1.67029325424636
O          -0.58059271751882   -3.05068049657768    1.61711016528131
H          -0.15484651852043   -3.66827726061502    1.03153161016707
O          -0.03876965529243    1.80350004190973    1.01521815266239
H          -0.47049611167204    1.03462519851255    1.43684286912638
O           2.63809472449958    1.10946502289221   -1.61446807453517
H           2.76310413064413    1.97649694447465   -2.00378401387383
H           1.68531269236645    0.89732019095257   -1.72507381115447
O          -2.49969161994682    0.37853394520436   -2.25097667082114
H          -2.78423942592725    0.07815763302258   -1.36054675352877
H          -2.52786770524071   -0.40491038434321   -2.80282341053503
O          -3.10104221550355   -0.53690445711350    0.22022748889570
H          -3.67938820212315   -0.01513588905066    0.77983094465766
H          -2.27209707917358   -0.65595733846895    0.72884548231631
O           0.01356141606506    0.67933266153621   -1.41051088103772
H           0.02123032322503   -0.24018340928356   -1.05635327765353
H          -0.85721144192335    0.73942559350758   -1.86250094149351
H          -0.14247963593850    1.62365675628299    0.05393146986313
N           2.35460695396653    0.77750062960303    1.04842814228224
H           2.65928427863916    0.84933421724020    0.05083318085855
H           3.08062275630901    1.08147262642201    1.68720048034140
H           1.45156340405753    1.35185488414903    1.14484020259754
H           2.05533439479595   -0.22299127204758    1.26452022177825
