    26
        -50.46627100  Gyration_radius:  2.44582878807 Dipole_moment: 6.885
 S          -1.95344855990481   -0.36682490501823   -0.13358849407650
O          -2.61473100658227    0.85196248329184   -0.50129256399461
O          -1.11187155408689   -0.94823225277931   -1.16997717262321
O          -1.19781190586982   -0.27320954961557    1.12017492844665
O          -3.10644481048220   -1.42177548388104    0.14037505101426
H          -3.86867757264161   -0.86478891697971    0.03015732967257
O           2.37532719261288    0.71322042735338    0.43957049800326
H           3.25310332841782    1.00732636754068    0.19546452889847
O          -0.73784035004986    2.81125662634123   -0.77549366553074
H          -0.44461009578070    2.83741746405681    0.15476345182455
H          -1.54526834975098    2.27024209375740   -0.76648684087483
O           0.15926466016831    2.04785281732042    1.69824949034167
H           1.03246068719982    1.72932972068574    1.43441624365696
H          -0.43491112704552    1.28351018837159    1.62930338589035
O           0.66627930035741   -2.86129548481400   -1.08406046006795
H           1.20510345871868   -2.71848951363236   -1.86504142055800
H          -0.11805326411787   -2.27408967969256   -1.19591475723661
O           0.83178329575824    0.86976186702808   -1.60489057516637
H           1.80497239992756    0.80531950187859   -0.39361386918407
H           0.14379017823765    0.18170477779614   -1.56914819057775
H           0.33243275828885    1.71308361369309   -1.45078979097889
N           1.08718690345168   -1.49762691652472    1.15332233944028
H           1.06730385722224   -2.14966672243577    0.32545210692178
H           0.11603391397855   -1.04718452023076    1.20065747896553
H           1.29952477546694   -1.98438749479349    2.01703947949361
H           1.75910187651010   -0.71441649871800    0.97135147829819
