    26
        -50.44806729  Gyration_radius:  2.62643686214 Dipole_moment: 6.896
 S           0.27230088703815   -1.96749787268216    1.11790924132309
O           0.45306868436326   -2.20065159694585   -0.32065930601553
O           1.57254543618706   -1.68159078120751    1.73147984108880
O          -0.74367577152800   -1.00288968039919    1.41288393119246
O          -0.20491390297013   -3.34551305802158    1.73736213428528
H           0.54536972070857   -3.92591779483402    1.64555948773443
O           1.37143658264450    1.58465738668607   -0.79121175419500
H           1.68810950145774    2.47896094096168   -0.92214973019383
O          -0.56227368495031   -0.20570240145077   -1.87922400488344
H           0.05173253556938    0.48956381363879   -1.60531682909744
H          -0.37003608847415   -0.98039606743812   -1.32343307304055
O          -2.96737862985208    0.88715078576947   -1.40823056923167
H          -3.17478604417749    1.31070284929723   -2.24224721866280
H          -2.13302699758490    0.38819473375217   -1.55755454886203
O          -2.46748922105340    2.37301452288231    0.77569064506508
H          -2.67187089635665    1.86217751321449   -0.03911463543095
H          -2.97828774129685    1.95219894830047    1.46967874870599
O           0.00957170284998    1.54521737499575    1.34210435958715
H          -0.85500268650439    1.98468301097839    1.16001302114334
H          -0.22991756001889    0.60696050072779    1.48642933035586
H           0.82221836517343    1.60614418843620    0.07670410750562
N           2.56518580236184   -0.73476590490395   -0.39724322999628
H           2.25492501361620    0.25753497144783   -0.58292119096501
H           1.84068657256581   -1.38099821847834   -0.79600701092709
H           3.50538927938731   -0.92345044683581   -0.72640328561431
H           2.40611914080446   -0.97778770787972    0.63590153913103
