    26
        -50.46934682  Gyration_radius:  2.40565018775 Dipole_moment: 4.747
 S           0.59752634866916   -1.09270563333306    1.00362957629390
O           0.99981868607318    0.23007124872346    0.50790365772586
O           1.29075404063382   -2.14044904345741    0.07723862823990
O           1.02288485118992   -1.29900136937038    2.36033691868121
O          -0.85523326825172   -1.26686403578563    0.82420274800461
O           2.12577572523956   -0.05957641779337   -1.85366726557374
H           1.83872932335526    0.10679016183910   -0.92843483515294
H           2.45748746535229   -0.96043623202736   -1.85676566272290
O          -0.30935312625692    0.31851787810681   -2.82860168556115
H          -0.30474802197714    0.48896714547783   -3.77152779024928
H           0.63960039803848    0.24763256233856   -2.55308744604406
O          -0.63006467248920    2.01642545260741   -0.61442282819275
H           0.12688065106264    1.52035532966732   -0.24154655984527
H          -0.78770136570845    1.58298643118532   -1.46697546467132
O          -0.63804001368424   -2.15540407686531   -1.65794861906782
H           0.65358616071298   -2.27513588640474   -0.67774946361567
H          -1.11545527296590   -1.94368128703544   -0.83857700475813
H          -0.62438164508789   -1.32765787017334   -2.17361161498060
O           0.35500805315907    1.11907410527556    3.17512834782555
H           1.04639263765092    1.62784739076779    2.74325179646302
H          -1.01318387946353    1.23081685984172    2.29872620438294
H           0.62217443685169    0.17985991691477    3.04144192612436
N          -1.74458388653686    1.03829551194250    1.55843126046233
H          -1.55581223542170    0.02465222745960    1.28556867208892
H          -1.50917377168119    1.59882273154718    0.69276957899783
H          -2.68888761847310    1.18979688855200    1.89428693514404
