    26
        -50.46911872  Gyration_radius:  2.45455268586 Dipole_moment: 4.033
 S          -0.65359488203171   -0.98062344745173    1.90381029991777
O          -0.67891071648867   -1.78646797861986    0.67712728985053
O           0.52885151867221   -1.17108993347606    2.69228713394576
O          -0.94685693176592    0.41127840633922    1.59165292538644
O          -1.87131765946810   -1.50335979193241    2.78518358176882
H          -1.42852058550400   -1.97262537922836    3.48523931569176
O           1.09940778343132   -0.23251726067341   -2.45108955566789
H           1.66623275247676   -0.54448156903653   -3.15669708121027
O           1.59579177792703    1.05746493918562    1.33907576240325
H           2.01482949947982    0.82176494089378    2.17029360392080
H           0.63878436649104    0.90061228541804    1.49075245400016
O          -1.75350997604072    1.85173732341645   -0.52260309070415
H          -1.63760339141537    1.53470148188434    0.39124734325414
H          -0.87335625986035    2.22183290049061   -0.77025976188596
O           0.82256121132806    2.25400808319406   -1.11212533397622
H           1.01238441747337    1.50797306452684   -1.69966153088919
H           1.25127966451567    2.04665520870926   -0.27109920034492
O           1.82068278694920   -1.20318661581077   -0.16321688763498
H           1.95737631170855   -0.41185976303487    0.39310145069080
H           1.02415099242556   -1.62506213008249    0.20263856470817
H           1.45300709498335   -0.63740146593718   -1.60221022435392
N          -1.42579676705196   -0.52291418681789   -1.49864010600374
H          -0.55684182436515   -0.46844524206782   -2.06481874380541
H          -1.20229294010522   -1.07822109525230   -0.62205456643567
H          -1.67415483641178    0.48491705335311   -1.17177503778788
H          -2.18258339742050   -0.95468982792509   -2.01615859482915
