    26
        -50.44806708  Gyration_radius:  2.626457551 Dipole_moment: 6.887
 S           1.73311574074114    1.13941431903125    0.94498819106475
O           2.27075207166846    1.74996613380925   -0.27436271658327
O           0.47085308062385    1.79835049878794    1.30426896835059
O           1.63375710384953   -0.28792396181089    0.89546267090759
O           2.76382554358105    1.49134180722625    2.09578930595356
H           2.91120061467788    2.42903476099186    2.01192537852353
O          -1.22405677431918    0.22174802493499   -1.86127668008306
H          -1.63907401129856   -0.07284865693484   -2.67256767413626
O          -1.71792242546930    0.21046929415717    0.94654443025648
H          -1.67242256495448    0.15407156144101   -0.01792306660802
H          -0.92331953665003    0.69216269844905    1.23389507096922
O          -0.19766904286054   -3.50267520189921   -0.16776653384683
H          -0.79395901693265   -3.11758092861770    0.51260131964829
H           0.57361340772132   -3.80315899266262    0.31642275322724
O          -1.75356166449622   -2.36329555140794    1.70478893982046
H          -1.68609269119839   -1.39914824129914    1.52236135958160
H          -2.69050666501930   -2.56077661122599    1.73848670207383
O           0.73200201606604   -1.31287274313865   -1.38546412128190
H           0.37169730977807   -2.17515845379938   -1.06857836305287
H          -0.44098319581661   -0.42256288734769   -1.69715110034938
H           1.17633377543161   -0.93964611157122   -0.59694934259952
N          -0.00546727141464    2.44710562214996   -1.13824040563485
H           1.03989122797796    2.20957171738822   -1.09027757737931
H          -0.20711224954378    3.34117672591485   -1.57168956703238
H          -0.53396898365160    1.64650472659318   -1.58000579161126
H          -0.19092581849401    2.42673048089577   -0.10528214019125
