    26
        -50.47071276  Gyration_radius:  2.41593994741 Dipole_moment: 4.171
 S          -1.75737654145820    0.40703775318472    0.92637822214978
O          -1.40219431561041   -0.92389788393610    1.39104407849657
O          -0.81545705716362    1.41537844020546    1.41639559070189
O          -1.95509892910592    0.50157182888251   -0.49984708266483
O          -3.15311889362040    0.74432926300658    1.59327563793791
H          -3.01999682480671    0.47022794007069    2.49419203421184
O           2.36787905158068   -0.81783232962553    0.34416837376855
H           3.26675441083915   -1.00494975646528    0.61674037295160
O          -0.67052486565886   -0.98030675877252   -2.30202441660381
H          -0.44515663751832   -1.73851950045673   -1.71218693368774
H          -1.33141137294479   -0.47586833719026   -1.78569634598137
O          -0.18441966395502    2.56277751222250   -0.83605169391783
H          -1.01769361693395    2.35622045261293   -1.27417036949425
H          -0.34908163502742    2.27358327754863    0.09151592193354
O           0.08537646444029   -2.46751152327868   -0.25289444022785
H           0.96121798683376   -2.11849816277991   -0.04028975530884
H          -0.53294139378396   -2.03317874368532    0.36543947920471
O           0.94677296133182   -0.22590999223739    2.43671196850605
H           1.87301332269689   -0.56142335591313    1.17731582252193
H           0.48742607671548    0.60330306165699    2.19742721486105
H           0.22748568085395   -0.87202096932792    2.35625820346173
N           1.31331534876571    0.58547228030807   -1.75028746809010
H           1.94875436710382    0.82534843422597   -2.50282418792044
H           0.81165552921661    1.44960344750864   -1.38322605331123
H           0.52664538929517   -0.08977604038183   -2.09245473210022
H           1.81817517807738    0.11483963281002   -0.97490943143410
