    26
        -50.47071261  Gyration_radius:  2.41592997031 Dipole_moment: 4.175
 S           1.49588434712952   -1.33502133248026    0.30515831734137
O           0.26412103388283   -2.04169995402494    0.66218778988147
O           1.55110815311495   -1.04724215950307   -1.11877813712998
O           1.72298337929752   -0.18671415092261    1.14890130355312
O           2.68295238787135   -2.34199502919670    0.59366984007542
H           2.59647862193483   -2.96796541768903   -0.11708022171402
O          -2.00826675493213    0.54946358997838   -1.43484161391464
H          -2.81578319349266    0.57828771586027   -1.94902196683066
O           0.70090188987696    1.38241335033462   -1.93829127291882
H           1.12223724257567    0.52499955188724   -1.73675146591984
H          -0.24932576767584    1.20911106036596   -1.97214003448176
O          -0.58350466734192   -0.50597220621878    2.58866498096913
H           0.29307068434700   -0.19563160452490    2.84227861186521
H          -0.38236001156058   -1.20493913038088    1.92375804342853
O           1.05345985655726    2.31100804341590    0.51009129015237
H           1.49834484421771    1.50074184286294    0.83155037397874
H           1.04735822790378    2.19848045733969   -0.47022163922936
O          -0.94591009741466   -1.81188300290693   -1.64512671356277
H          -0.05774562494902   -1.58344222237412   -1.96189781801472
H          -0.75754395080774   -2.08170509488219   -0.72452647583726
H          -1.65911438285124   -0.38636183779211   -1.51890225487536
N          -1.34414713882028    1.49740155840389    1.04070321830046
H          -0.37055996010216    1.95184437521407    0.84733647484324
H          -1.98545392649363    2.16049891610646    1.46100200064435
H          -1.71381878135807    1.14642390156942    0.13640919899683
H          -1.15536640091005    0.67989879952722    1.69586815039708
