    26
        -50.44806711  Gyration_radius:  2.62651601838 Dipole_moment: 6.889
 S           0.16878526238969   -1.96765911570308   -1.13820911274709
O           1.62949794559537   -2.02060221876433   -1.24781925462441
O          -0.22656444998969   -2.24584477844068    0.24849785244038
O          -0.41971701406107   -0.77431683028473   -1.66672839783909
O          -0.37408153323072   -3.17529477371556   -2.00845451451623
H           0.13947779299330   -3.92733641606088   -1.72785778041493
O           1.33976046500169    1.17457187335791    1.35492125315670
H           1.79215059866811    1.95808261182262    1.66903215329591
O          -1.22084132943518   -0.06334918296414    1.54817387503597
H          -0.40238380652842    0.45168301546186    1.56665703121525
H          -1.03556623706379   -0.85954982734381    1.02120937794988
O          -2.96835517825059    1.61445748756473    0.39419275034174
H          -3.34990390417294    2.07123229366524    1.14506125295257
H          -2.38567127447055    0.91639914936097    0.76910271000470
O          -1.39056078401442    2.93538031498370   -1.33533012208378
H          -1.71081651450430    2.66823648187170   -2.19886035676132
H          -1.98505042675796    2.48920121435251   -0.69169210113604
O           0.84827434068673    1.49390349998477   -1.10751854264165
H           0.45620426219456    0.64979750101179   -1.41137340926651
H           0.10817957301226    2.14160978028718   -1.18824535390071
H           1.15303047636760    1.33943706349819    0.35824227537342
N           2.00859375853764   -1.37066459543466    1.17057630689070
H           2.17005336828081   -1.55894014520182    0.12681017468872
H           1.89821041783560   -0.33305622284996    1.33367041266455
H           1.05820480390334   -1.81178946393490    1.23663903625218
H           2.69908937705117   -1.79558872651478    1.77930249369759
