    26
        -50.47071278  Gyration_radius:  2.41595734704 Dipole_moment: 4.168
 S           1.42213895622726   -0.52355278502198    1.34834873912090
O           1.97786102882889   -0.87498442816434    0.04006006131253
O           1.28944051452462    0.91607520206114    1.50139508148692
O           0.21669539626446   -1.26181318245175    1.63831533710883
O           2.49328897428426   -0.97942985987246    2.42130434414327
H           3.17592865244301   -0.32542157464319    2.31785647226951
O          -0.57138629306636    1.59862638612043   -1.87440939904912
H          -0.61736679673016    2.16021130993443   -2.64887907437701
O          -2.25022567044613   -0.34177790164415    1.23652620104328
H          -1.44174774068745   -0.76740420056783    1.58732676830176
H          -2.03791437142029    0.62128173415021    1.26933898254683
O          -1.10730155094393    2.01964120399598    0.92226625201682
H          -1.01493203659283    2.09229557682129   -0.03709343992335
H          -0.24178841181610    1.70990172157238    1.25137143623374
O           0.18280700278667   -2.58634491706168   -0.75793520219004
H          -0.07458630382674   -2.86082007918854    0.12939223365241
H           0.96165274845255   -2.00672461581614   -0.58871468380460
O           1.88248368451213    1.51111079154030   -1.02671315030705
H           0.39507505098650    1.56889104868420   -1.61003939673570
H           1.76653128783258    1.79554009340860   -0.10633906197452
H           2.07135217835657    0.55890122483016   -0.91074392105250
N          -1.70880770970201   -0.80638568037641   -1.24994172394562
H          -0.94991339781671   -1.54873152364646   -1.17124765205544
H          -1.30009110618382    0.07926804676916   -1.60499956542170
H          -2.46539710289699   -1.12095431478790   -1.84678664873112
H          -2.05379699353771   -0.62739929668209   -0.22965899966450
