    26
        -50.46336439  Gyration_radius:  2.42375257738 Dipole_moment: 4.901
 S           1.59398838754523   -0.34155426470134    0.78608923525944
O           2.82421236225375   -1.04123103987899    0.50889675925843
O           1.19432741527797    0.57749072079404   -0.25011535934649
O           0.50301227124160   -1.26059217034054    1.14058775987457
O           1.83411651893901    0.54274139536045    2.09188375216642
H           2.35308208220725   -0.01559270946366    2.66369252954816
O          -2.20581946756084    0.23273928699285   -1.24521694748971
H          -2.86094206548556    0.48358682824291   -1.89722610104570
O           2.14145719788406   -1.25455755108807   -2.05235893465284
H           2.53573150742576   -1.29893884454725   -1.15360740142544
H           2.23520249035002   -0.33193434356471   -2.30614646093893
O          -0.69472208704422    2.16577181322488    2.00047147670755
H           0.20186341120468    1.82858075899580    2.09199233694611
H          -1.27927867273956    1.38188713669623    2.04943564077264
O          -1.95757075975263   -0.20268334390646    1.61115259330254
H          -1.10045870954267   -0.65986591236679    1.56311188922007
H          -2.26184843659591   -0.10484744611948    0.69976553699678
O          -0.79370200622182    2.29931970950641   -0.67867459591519
H           0.05720032259533    1.82648290128264   -0.68231537862248
H          -1.68711400278815    1.08077585815339   -1.03404738809270
H          -0.91982510375674    2.50058002158636    0.27449724440120
N          -0.36099915375712   -1.69859440412386   -1.26315732969730
H          -0.73491343615495   -2.61082912003639   -1.50496047297622
H          -1.07446663444997   -0.93972858370012   -1.41797025423605
H          -0.09488898969122   -1.64947408613903   -0.23407817048367
H           0.55235553848659   -1.50953261960428   -1.76170195921436
