    26
        -50.46911712  Gyration_radius:  2.45435355106 Dipole_moment: 4.087
 S          -0.55317944469845   -2.16589834955738   -0.11854112123519
O          -1.59040978322002   -2.26740331834094   -1.10348783143949
O           0.74507223214756   -1.76286581721749   -0.67332314462528
O          -0.88998221558462   -1.32671910897184    1.02263056638853
O          -0.33549759181817   -3.63222224205288    0.46032076545001
H          -0.78144351659234   -4.17402047689410   -0.18322991745841
O           1.34027954708185    2.09538172120940   -1.03931196621007
H           1.73105838199297    2.67977566059744   -1.68918400225600
O          -2.26497148371690    0.38469436539721   -0.43690096456646
H          -1.83253558490305   -0.25193205059432    0.17210333953799
H          -2.94223608892717   -0.12922711921527   -0.88323918957409
O          -0.73982928768115    2.38659483290017    0.86944080687672
H          -0.03464348025007    2.47886693834818    0.21222019031344
H          -1.44456472307675    1.88694156078458    0.43599303145498
O           0.28519042598329    0.55736077661800    2.52776151929426
H          -0.26513999154715   -0.19894467672129    2.25532029885608
H          -0.14934601460998    1.34118114870387    2.11583846118639
O          -0.15585959736934    0.30522982521861   -2.15866864036126
H           0.17929318224093   -0.55063535203307   -1.84021507108044
H          -1.01964897501919    0.41179733809120   -1.71497458932458
H           0.76644209366420    1.44669587215060   -1.54873784684633
N           2.02351053285730    0.09741266907976    0.66581207134882
H           1.98133079679126    0.92662226752024    0.04172887577649
H           2.97727419149072   -0.12818455534313    0.92353071970746
H           1.40098363188225    0.30250031321686    1.53439805831015
H           1.56885277288500   -0.71300222289383    0.15271555047083
