    26
        -50.44806732  Gyration_radius:  2.626359535 Dipole_moment: 6.894
 S           0.22916386509183   -2.10576467831895    0.84076655125868
O           1.59201926862237   -2.37140812116055    0.37080039100486
O           0.27418801882200   -1.13853777194429    1.94481234543063
O          -0.69111080722484   -1.74268360325917   -0.19410128929398
O          -0.28762418974727   -3.46881332691351    1.46163598718500
H           0.41274272385597   -3.75238328567793    2.04227543210889
O           1.40492058982880    1.64568453143440   -0.57626077827531
H           1.76972763182610    2.32116707272126   -1.14883896731622
O          -3.00647009912666    1.58746686187184   -0.11143034738904
H          -3.25407608351465    2.49580010108243    0.06630398715869
H          -2.22390104025222    1.40379777712800    0.45535520789360
O          -2.22536216860868    0.85548620280389   -2.57726865305335
H          -2.70488155073131    0.04217832039165   -2.74521151006458
H          -2.53150116395630    1.15591519078579   -1.69254393417289
O          -0.73045959612875    1.30928985780277    1.28246846322158
H          -0.04951182175417    1.55205273750667    0.63996587224321
H          -0.54542042539290    0.39258165430989    1.54972178375383
O           0.22680119844719   -0.05674517046358   -2.03270987292740
H           0.93298172555755    0.97700808451913   -1.19711751852560
H          -0.06398116830893   -0.76813755951969   -1.42617761367584
H          -0.61749012382029    0.34480913978342   -2.34847410387772
N           2.46752266075187   -0.10539562470384    1.08646014912243
H           1.67024895881109   -0.22277754901228    1.75891284855675
H           3.36234647333859    0.04910423061671    1.53739012478944
H           2.37840339008072   -1.06097896364462    0.60630424213437
H           2.21072371358910    0.66128385182338    0.40696119272535
