    26
        -50.46934677  Gyration_radius:  2.40569880306 Dipole_moment: 4.747
 S           0.37904058423674   -0.50149826479101    1.47134075175106
O           1.43659414946283   -0.83915930981965    0.50154331483083
O           0.89899425062300   -0.06475016760964    2.73750376818970
O          -0.52470531788955    0.49770625642792    0.88632597186418
O          -0.46851946547642   -1.79608270067907    1.67684156451965
O          -0.33041451503700    1.49643015368150   -1.57780033888414
H          -0.61560973928213    0.72555945032537   -2.09148746783685
H          -0.58328728231937    1.26697478879885   -0.66041526304333
O          -1.50734425526447   -0.96722022797473   -2.23471304018291
H          -2.10762875673104   -1.22428042836095   -2.93603440799799
H          -2.06249024001590   -0.84373362933375   -1.42353534015055
O          -2.72871508926001   -0.71006605263447    0.10335862625530
H          -2.78349124912508   -1.49649962666810    0.65121095378353
H          -1.99653204372179   -0.17840401636288    0.48721799209172
O           1.34975514056616    2.41275501935580    1.95272581063527
H           0.44399920543137    2.72926030199633    1.90096865215582
H           1.27650212723259    1.53088703207046    2.38665130051872
H           1.86622756270583    2.03360557427143    0.45553733282603
O          -0.00106817897752   -2.70021311542473   -0.70974737888261
H          -0.39305590746203   -2.29021826874522    0.81415641593275
H          -0.50375763223248   -2.18100173930206   -1.36472901767166
H           0.80545860709974   -2.18746002698178   -0.53447768307967
N           2.03841221103579    1.48621020398073   -0.43375291286213
H           1.95991732013062    0.47115298915666   -0.11570639362540
H           2.93388345645780    1.70147309823461   -0.85714181065215
H           1.21783504784588    1.62857270639423   -1.08584137048479
