    26
        -50.46422727  Gyration_radius:  2.57418284044 Dipole_moment: 3.112
 S          -0.46005270679544   -1.29605379242380    1.85671917739080
O          -1.81325483738491   -0.78289510786130    1.76871770919181
O          -0.28016115456160   -2.60583449934944    1.27255158745083
O           0.49144915766764   -0.30801503214458    1.34097474753420
O          -0.11528265548433   -1.47578872452624    3.39580578156663
H           0.08089493825066   -2.40662381973119    3.42102580772050
O           1.02522769389284   -0.36349825213916   -2.26647717674932
H           1.12214488827086   -0.58029521084859   -3.19413462126033
O          -2.73531647352391    0.16203088288193   -0.44931331813156
H          -2.44380204891477   -0.17163659428894    0.44012383871732
H          -3.69058831518131    0.08918432143821   -0.45391536752035
O           1.64875645316010    3.07227049057312   -0.06488569019042
H           1.85437293955023    3.47183082356637    0.78097647314168
H           2.17991061823446    2.23985866263062   -0.10764688767345
O           2.64657477741075    0.58579491480540   -0.10224656435158
H           2.37180203494402    0.18361195263725   -0.93740233184127
H           2.07471150489716    0.17875810168330    0.56848795441286
O          -0.84577803295905   -1.84660536504382   -1.20230385240556
H          -0.62646353642068   -2.23619084365546   -0.33119407220154
H          -1.61296029983141   -1.27323678520892   -1.06149906965884
H           0.40875192196499   -1.04368904203829   -1.88281539060997
N          -0.28070522637810    1.31039650303188   -0.57124335705021
H           0.15124352614082    0.85980138673595   -1.40047059710183
H           0.18816863854109    2.22480404872706   -0.40821354172408
H          -1.30162929019408    1.32996095148727   -0.66319718335137
H          -0.03801452529821    0.68206002904889    0.25157593468469
