    26
        -50.46422794  Gyration_radius:  2.57406291187 Dipole_moment: 3.111
 S          -1.48193157035306   -1.51619365740004   -0.91946474830971
O          -0.40928769804806   -1.88197030428921   -1.82356533921089
O          -1.63465506916969   -2.39996865791499    0.21393608374799
O          -1.35860444345420   -0.10882476554110   -0.52949692111156
O          -2.84560672938591   -1.63133915575652   -1.72382178754932
H          -3.31480186026690   -2.25562699864272   -1.18006083164449
O           0.84933309614104    0.54829749542654    2.29996514173620
H           1.37378642257151    0.53184059775026    3.10098172583320
O           0.09816708394406    3.44346023050923   -0.54242111842277
H          -0.48717813787183    3.08389848751370    0.16829957883174
H          -0.48857937028191    3.79299517470423   -1.21396294902329
O           2.05656652963274   -1.40802752305468   -1.22535010328315
H           2.62211486736666   -2.02016528631287   -1.69791138131910
H           1.13144672964152   -1.60648990481691   -1.52890893986857
O          -1.35241254924202    2.01845276592434    1.20204247057915
H          -1.61560472147729    1.28519010191530    0.62257441480615
H          -0.73176816883329    1.62534851327342    1.83053697537417
O           0.73243962203927   -1.85088469802392    1.27014673755494
H           1.30224910802267   -1.84917213423165    0.48756268571232
H           0.72143498369092   -0.40065974034651    2.02933674010539
H          -0.15533436323219   -2.13153857018687    0.96704108249930
N           1.03195950297394    0.95679849150972   -0.37944367836082
H           1.73209419173699    0.39068074691633   -0.86973811828971
H           0.08236767990755    0.50106536819965   -0.52461142939725
H           1.19653361655091    0.93326065105863    0.64516303752041
H           0.94527123740149    1.94957278182677   -0.67882929851806
