    26
        -50.46254314  Gyration_radius:  2.49145140261 Dipole_moment: 7.182
 S           0.44957414154330   -2.33107879606120   -0.04943861289054
O           1.29162796884517   -2.17253957294211    1.13965211788343
O          -0.80934122818017   -1.60729051756053    0.13370100267780
O           1.12298352872610   -2.00593586042402   -1.27381120395747
O           0.07156863350730   -3.86674822382391   -0.10540320924173
H          -0.30415790801843   -4.00600455301684    0.75752332841372
O           1.26698342849638    1.88482053331853   -0.47152243515785
H           1.97161303563110    2.45837471947506   -0.77459589829881
O          -1.84375311737376    0.08297742761188   -1.70137016480220
H          -1.57567307653600   -0.65098925285464   -1.11746610743446
H          -1.93269817072035    0.85260437940466   -1.12148688050821
O          -1.39467513972058    2.30743076383653    0.00858504419441
H          -1.69335472629989    3.15417737700540   -0.32493178052462
H          -0.43488119167483    2.25084064561774   -0.16854392986103
O          -1.42243317360597    0.27346556644941    1.91240889742560
H          -1.69049282321341    1.01707070429434    1.35246265709922
H          -1.38021320483497   -0.50357700737678    1.31426953378633
O           0.71298110663104    0.34849111195819   -2.40482673374798
H           0.98554332479613   -0.54912844583281   -2.12141427937163
H          -0.27106421665894    0.30330896791298   -2.38670856485213
H           1.07102083594764    1.25467413820690   -1.26463196647296
N           1.18737216445294    0.32091629077946    1.74744450008475
H           1.33025412970494   -0.71781108689326    1.50160510594659
H           1.36832001258033    0.91150539432797    0.90874696689575
H           0.14686920363631    0.39844198403657    1.98263551231542
H           1.77602644233255    0.59200331255564    2.52711711038644
