    26
        -50.46422763  Gyration_radius:  2.57418585162 Dipole_moment: 3.116
 S          -1.90695694842073   -0.73908659070576    1.07622012531995
O          -1.42272881085717   -0.72349395460975    2.43796807297345
O          -2.52298633459135    0.50079560918698    0.64604844508732
O          -0.88353873736015   -1.15734524336653    0.11417960541741
O          -3.02526989749181   -1.86531127525560    1.04502587137647
H          -3.00701308702968   -2.15135350044741    1.95246507749556
O           2.42256020994676    0.30696940844232    0.59566959167678
H           3.23443260515627    0.69561050522831    0.92239658761779
O           1.19346721897744   -1.02440556893738   -3.11247967487227
H           0.63075548318095   -1.60556046935976   -3.62532366277108
H           1.44825540268824   -1.53592953255739   -2.30608436015240
O          -1.09068294251753    2.55469596264636    0.01869848380046
H          -1.60963591277621    3.35188986682072    0.13287009309989
H          -1.70387122317218    1.80147341267973    0.22825399212375
O           1.56175895388745   -2.10601268999381   -0.68877896675959
H           0.65802544175925   -2.02468434551131   -0.34338587845447
H           2.08053391840555   -1.47351980565690   -0.17344806158598
O           0.40004191751586    1.15362440671515    2.01913857020647
H          -0.24095579280808    0.46351423025292    2.28662721587125
H           1.71326917132393    0.54828467868076    1.25024269605251
H          -0.08772614791356    1.78376335498751    1.46962890586310
N           0.43164415495326    0.67976128409487   -1.21520051185007
H           0.62208519331015    0.29621637449131   -2.16335829795858
H          -0.04187250999171    1.58832075655955   -1.17593082199277
H          -0.17690580202238   -0.02848040672001   -0.70646163840289
H           1.32331444587598    0.71026352234594   -0.68498145918048
