    26
        -50.46548009  Gyration_radius:  2.5209151194 Dipole_moment: 1.494
 S          -0.02018587811841   -1.07862843356870    1.76991639209759
O           0.61823377046978   -0.02494890667284    2.55051627447445
O          -1.28357004849650   -0.64800092578089    1.21535620333308
O           0.87694782481257   -1.64787311629940    0.77674419229051
O          -0.34696840689327   -2.26052624951761    2.77541188722406
H          -1.08489587561441   -1.90085161577373    3.25620504804621
O          -0.96701723131060    3.06018913705404    0.13102438159036
H          -1.59663077605304    3.24243213706201    0.83032220745715
O          -0.34178776818448   -2.77484410347311   -1.25756678444961
H           0.00972087153341   -2.39034934592890   -0.42225256525531
H           0.24088511989253   -3.50641066048127   -1.47031973110406
O           1.91558568839339    0.08574522212261   -0.97650289043539
H           1.69008193647162   -0.64325671444853   -0.36311646997739
H           1.27187114512216    0.01307154506683   -1.70000621815351
O          -0.19798621428029   -0.52025402338080   -2.65150127010823
H          -0.49115091254170   -0.64831344363783   -3.55439597142592
H          -0.31796660987792   -1.38541331104379   -2.18728104943868
O          -1.86315613735237    0.86251170980295   -0.91773576846838
H          -1.30643328837399    0.46348570249409   -1.60676972610670
H          -1.77291893078836    0.27242602428594   -0.14372792734826
H          -1.35034244946764    2.28293235341834   -0.37045127735762
N           1.27417197952737    1.85249277456920    0.86803961750597
H           0.41279446638982    2.40770983732209    0.59945205677598
H           1.59482304009970    1.27167045610892    0.03758299654484
H           2.01775571079893    2.46454814660140    1.18600289090893
H           1.01813899384329    1.15045579408079    1.62505350138331
