    26
        -50.46603975  Gyration_radius:  2.42512238882 Dipole_moment: 5.918
 S          -1.09352192878258   -1.20467754958917   -1.24956999006356
O          -1.17214299340744   -2.45077706930705   -0.53826490800056
O          -1.70800220289548   -0.07580567483664   -0.57458879891422
O           0.27239765790323   -0.84181563535033   -1.64897372005089
O          -1.89851110334974   -1.41956584066260   -2.59800890820805
H          -2.00159558142512   -2.36448733683107   -2.58116509354038
O           2.01875670673651    1.00080135736650    1.12279322901169
H           2.77448441320679    1.18677124886855    1.68007642625206
O          -0.08695337218092   -2.13344342865035    1.92265655871981
H          -0.44778034657949   -1.27994583314499    2.20784719309586
H          -0.59685137593836   -2.39771079426213    1.13649101881500
O          -0.70761013428741    0.63565797211117    1.83824452423523
H           0.23623366190555    0.79059456444190    1.68526522728084
H          -1.08630607655193    0.30307810364550    1.00411604798544
O          -1.56690267023556    2.54874273260401   -0.14083068202902
H          -2.00143440256957    1.72952328406800   -0.43609249247571
H          -1.46416994272045    2.42573542608064    0.81361873075970
O           1.97214905248646   -1.45170403042987    0.39044263380599
H           1.35449587198623   -1.85294308777657    1.04823509043967
H           1.46375180169001   -1.41105710662707   -0.43773746157804
H           2.08344375139263    0.02023528359650    0.87011467766734
N           0.74143285868712    1.66947256390957   -1.11990483415731
H          -0.16211701031434    2.12683666770243   -0.79358629591824
H           1.38277038368520    1.59027134047502   -0.29901160543835
H           0.52287136981152    0.66883485405955   -1.42352228608716
H           1.17111159174664    2.18737799853561   -1.87864427160575
