    26
        -50.46163576  Gyration_radius:  2.55718730878 Dipole_moment: 2.261
 S          -1.38407997225520    1.45607556181395    1.18072552362149
O          -0.87659551074069    1.96436477094660   -0.09298410042163
O          -2.55438980038502    0.61657335715113    1.00557307960691
O          -0.31843187512646    0.86259838531146    1.95390138858732
O          -1.89218422758830    2.72256853469585    1.99849034426456
H          -2.76965034435459    2.84649522174878    1.65071751947255
O           2.01193022981748   -1.33944623861245    0.52242899164292
H           2.76871730413842   -1.63036513697234    1.03176856558687
O          -1.83380076143552   -1.49381009232704   -0.30955370430691
H          -2.12859483841416   -0.66305916439104    0.14472405158652
H          -2.63496982568271   -1.95219000353496   -0.56850369031397
O           0.47428668872604   -1.60748449907619   -1.83187851278525
H           1.12229722613644   -1.72855407426474   -1.12430191826805
H          -0.38717451883713   -1.55233086055753   -1.38376411072282
O           1.23418060023102    0.68610476950573   -2.89600413986397
H           0.96101965007693   -0.23840002417956   -2.66524868534765
H           0.42464396643064    1.14786909388255   -3.12440539343199
O          -0.14788943748049   -1.77239286203125    1.86494759579878
H          -0.80758140018625   -1.93657997049755    1.17176043611026
H           1.20123909704732   -1.56675416666672    1.07677402309447
H          -0.26734131911672   -0.82758723130696    2.09829726421535
N           1.58596757281750    1.20890199210011   -0.32728441110931
H           1.62751507261252    1.08959811299920   -1.37933325479321
H           2.25024184740462    1.89602650838770    0.01026388470221
H           0.58563398313309    1.53298891892707   -0.12586974149370
H           1.75501059304530    0.27878909693652    0.11875898457701
