    26
        -50.46794346  Gyration_radius:  2.46405138399 Dipole_moment: 2.600
 S          -1.33173687809732   -0.08287168381177    1.27292179730948
O          -0.54097252063357    0.47361251858699    2.34643230152209
O          -1.38790627746285    0.75727547193110    0.08629850580662
O          -0.92975695508588   -1.44255446547975    0.93739400133061
O          -2.82195691656058   -0.15901252361095    1.80223084068121
H          -2.71059827572258   -0.45711789610167    2.69915099712383
O           0.26181054504816   -2.75887047030752   -1.07930269988395
H          -0.32796522844829   -2.46259691008577   -0.36001972044495
O           0.85000233745126    2.28570362967097    0.95418274746392
H           0.39980960785422    1.68999840870410    1.58361686445683
H           0.15858035410366    2.57511938437227    0.35426936052787
O           2.51847236967621    0.59422763195076   -0.30460222704345
H           2.44662772681454   -0.12381471454853    0.35669443519120
H           2.11136762253415    1.36782513409082    0.14070448496362
O          -1.65399036370805    1.48721396321113   -2.60466829036943
H          -2.46954911050469    1.86678124640421   -2.93339154898813
H          -1.77724825180947    1.35332338089113   -1.65393211014529
O           1.65334057316135   -1.17425135563303    1.55703519446301
H           1.63543606985377   -0.63756498756946    2.35369391592164
H           0.71235406980840   -1.34542779238170    1.36151871702959
H           1.05915400325798   -3.06947466569533   -0.64304288238435
N           0.43710833139951   -0.15059264696627   -1.67660574896954
H          -0.29254849842333    0.15879670229121   -0.99557058626211
H           0.20379460302064    0.26586372491088   -2.57603324579001
H           1.37882999406870    0.18419697341063   -1.28180291971174
H           0.41754104839334   -1.19578807821084   -1.69717219382343
