    26
        -50.46794258  Gyration_radius:  2.46410889868 Dipole_moment: 2.601
 S           0.80226290543173   -1.15176458747338    1.19654091952419
O           0.65014616644314    0.14641862642563    1.84062251366247
O          -0.35604017750951   -1.99479432185628    1.38305334401063
O           1.20690738499968   -1.00685083280204   -0.19341053034907
O           2.01311353594320   -1.88075303985766    1.90997380418609
H           1.62440056950082   -2.18717018810526    2.72276005434826
O           0.36088017603964    2.72524023333895    1.14421575849714
H           0.63007241188056    1.87709643258673    1.54583459783022
O          -1.30646614460940   -1.97366954598130   -1.11719979519915
H          -1.06009749681034   -2.08834414763818   -0.17915015702375
H          -0.47398975721640   -2.00460665661154   -1.59428697770043
O           2.32504106124766    0.09972674472936   -2.51084398749189
H           2.12359518429402   -0.44389139292722   -1.73573406265029
H           3.15751222828102   -0.22125771676439   -2.85887312671873
O          -2.28666894358024    0.53013902985235   -1.12330789930620
H          -2.39657223722074    0.59414617077733   -0.15269972772230
H          -2.12434887069069   -0.42448072217965   -1.28081343453258
O          -1.99893947017641    0.33200364170104    1.56274743044527
H          -0.50909256608094    2.91328239275597    1.50520199734288
H          -2.30139662045266   -0.56383834688626    1.73311281697165
H          -1.03890433893685    0.29834172659636    1.73624737747554
N           0.19531409459915    1.30966496359237   -1.12745918198298
H           0.61291502884589    0.43706710727701   -0.73243589894090
H          -0.84870559344253    1.10259237319807   -1.27722061853558
H           0.30469415000704    2.05872478085540   -0.40639906842546
H           0.69436732928605    1.51697726535776   -1.99047614773444
