    26
        -50.46163581  Gyration_radius:  2.55693258722 Dipole_moment: 2.257
 S          -0.33297339239495   -2.14800374501525   -0.83686436501677
O          -0.05736220822927   -2.77752368326784    0.44100031489478
O          -1.52409078403542   -1.30112745555123   -0.78743926499037
O           0.77906566376540   -1.43057252705569   -1.41507077573250
O          -0.67304892062320   -3.34278122467537   -1.83078820500138
H          -1.13249018250057   -3.95178362211331   -1.26146278160550
O           1.57307911232868    1.85077391571531   -0.46016841641792
H           2.24633840508619    2.33622326549766   -0.93752876374622
O          -2.37715463743104    2.14226824862318    0.37872742093827
H          -2.97128961227648    1.42993566942251    0.62434324354323
H          -1.62406380069653    2.09864974518205    1.02168806158613
O          -0.16541117239536    1.73964954146150    1.76349960132829
H           0.52043364113042    1.99050632553235    1.12956480651434
H          -0.00328508987269    0.80073695840709    1.95857495138936
O           0.52478683784939   -0.91393305157025    2.14150137621825
H           0.24795041720119   -1.62765616871460    1.51114205470766
H           0.53448037792420   -1.31819193686175    3.01069038885230
O           2.52454217201269   -0.42518424187253    0.29460456987540
H           2.03577693185739   -0.92734507812606   -0.39117568475351
H           2.01039283430215    0.99363635734519   -0.15986043457716
H           2.04063845136210   -0.60314474155083    1.11728643254331
N          -0.82725450406609    1.08926574986132   -1.48798786833118
H          -1.04549637084552    0.06405401416637   -1.27006767670721
H          -0.95307922909026    1.27061257566721   -2.47721610365001
H          -1.49941431771209    1.64521857007359   -0.88649790704788
H           0.14892938735221    1.31571652942075   -1.19049497481433
