    26
        -50.46794286  Gyration_radius:  2.46414696646 Dipole_moment: 2.585
 S          -0.64132861243797   -1.64955201044530   -0.51781228088194
O           0.16892240071534   -1.42591335600906    0.66987493040051
O          -2.03792196267976   -1.32302158591799   -0.34306928990682
O          -0.06119655336625   -0.99309105067233   -1.68190371186245
O          -0.57406594384469   -3.20889599308393   -0.78404143587767
H          -1.32896062006286   -3.35719994523543   -1.34419135393214
O           1.72070169601104    0.93949004147151   -2.23833260035812
H           1.19619856020633    0.11682504824013   -2.20588354665827
O          -1.84633945775388    0.20399867233519    1.84516723771350
H          -1.16597253967578   -0.28781075440547    2.31086990539195
H          -2.06355194831303   -0.34649966917952    1.06831689610581
O          -0.78339967894248    2.38644765950258    0.68921979798762
H          -1.27690570555949    1.76428591860551    1.26528381405299
H          -1.12201169465936    2.19609007632826   -0.20920938432438
O           2.41863936269282   -0.89846410805990    2.25283287383135
H           1.66015351186818   -1.30362081453417    1.80835857622783
H           2.87586647561691   -1.60591251625846    2.70861127009390
O          -1.58536113896833    1.19752486224805   -1.60964996520894
H          -2.45194111812198    0.85770904226265   -1.37203234664980
H           1.15400098029304    1.58586113364987   -2.66687164295620
H          -1.03437009237878    0.39851138935438   -1.71484629659778
N           1.38150785032985    0.96866708201001    0.42143928591773
H           1.72995790929861    1.08791381589708   -0.55721397206277
H           0.60258573589724    1.68313719089723    0.61591390408110
H           0.93470376460341    0.02586763998888    0.47772002933356
H           2.13008882918945    0.98765222100249    1.11144930616735
