    26
        -50.46422814  Gyration_radius:  2.57434370704 Dipole_moment: 3.111
 S          -1.40017019874677   -0.98428367012752    1.55409742179949
O          -1.24514472611417    0.22430075668000    0.73927647944937
O          -1.82506820904768   -2.12895536048291    0.78059241778813
O          -0.21028540573845   -1.20769410884550    2.35118280115817
O          -2.59722996045337   -0.68992212375027    2.55404056223877
H          -3.21546081104406   -1.36170176897787    2.28552868962508
O           0.45335399253365   -0.25718144683288   -2.45641680598540
H           0.82092079596432   -0.57136404610964   -3.28292504179483
O           2.13689024894239   -1.23880391646118    1.27683903252982
H           1.26932666807641   -1.22442562451890    1.76085239190972
H           2.73341638846412   -1.74779923521438    1.82725335121016
O           0.45796170264017    3.40980257599214   -0.56885774403123
H           0.03412474677841    4.01942571940125    0.03623024302428
H          -0.27423672450304    2.93642092664735   -1.03432158421923
O          -1.39351251890246    1.73622363782673   -1.54453988284502
H          -0.93003305321856    1.10159533355920   -2.10765564718149
H          -1.60064685483037    1.24325535072917   -0.73409320720613
O           0.34802526894596   -2.21890655313540   -0.73228124660759
H          -0.48891252644046   -2.28352302640028   -0.22808894401440
H           0.30686045611546   -1.06256361492898   -1.89095699880783
H           1.04896777499615   -2.06398742572731   -0.08305640813484
N           1.15175672626317    0.88483175434627   -0.09216479006030
H           1.88408491012738    0.39985950179835    0.43691702030098
H           1.12407323131426    0.54438751447503   -1.07229279580093
H           0.21250996674713    0.61696818038257    0.32809666132351
H           1.19842809115053    1.92404065970914   -0.10325594568584
