    26
        -50.45694536  Gyration_radius:  2.75326231922 Dipole_moment: 5.180
 S          -1.31568102423990   -2.20003459398522   -0.57107211525755
O           0.12420726481146   -2.47149121374221   -0.57873310470086
O          -1.81326175682683   -2.12520843487915    0.79779645370053
O          -1.68135588513060   -1.06529382026040   -1.38090049638885
O          -1.99793588586860   -3.47578764223679   -1.22414942573621
H          -1.67117380190389   -4.18066233578894   -0.67350172216303
O           1.75130065387950    2.19589304781503   -2.00699886203095
H           1.69607528207793    3.14819314329950   -2.09635181721382
O           3.38295127193033    0.77381518351729   -0.38785697917741
H           2.89421801408163    1.37099487912805   -0.99333637041400
H           3.93102911522572    0.22152679257905   -0.94773239085109
O          -1.75217205683387    1.96569443680325    1.35821246081106
H          -1.49301186283597    2.65273528496125    1.97334156538230
H          -1.52945504431009    1.11096492317279    1.77762548778569
O          -0.86370309530094   -0.38708143312190    2.42469766086880
H          -1.15481962293626   -0.66890369657867    3.29322266741881
H          -1.26058375809283   -1.05352631828350    1.78962442002729
O          -0.65507548799738    1.30992469522089   -1.02799918465455
H          -1.13042324022192    0.49483588037723   -1.31436192491686
H          -1.19882964805106    1.69013850398911   -0.31176932853233
H           0.84798711592035    1.88653746942278   -1.81233710915177
N           1.00239286598499   -0.23772733503608    0.40160977218535
H           0.41294635769437    0.44606220065559   -0.14390338642344
H           2.00315654661309    0.02311761590751    0.28304517105202
H           0.68996875681024   -0.22888025241118    1.37771607913636
H           0.78124893549047   -1.19583699047376   -0.00588752073815
