    26
        -50.46934668  Gyration_radius:  2.40563381175 Dipole_moment: 4.751
 S          -1.50362854278529   -0.18971736517083    0.50944530062847
O          -1.42520647703871    0.80490593264055   -0.57569182633422
O          -2.42374501196975    0.18519016271936    1.54724712480195
O          -1.97473840985703   -1.52691485630139   -0.14359683683236
O          -0.15952203841383   -0.44055909297437    1.04569964699859
O           2.08969051037526    0.67196788838803    0.14626464849656
H           1.40555073773560    0.15864502011423    0.62222128838816
H           2.17768674942270    0.20435159045318   -0.69827088367408
O           1.76858164272157   -1.26305739520378   -1.86295933279861
H           2.40737449362613   -1.75016144702624   -2.38532653592381
H           1.47834731593871   -1.87242954583601   -1.13775849635589
O           0.71947731625184   -2.72672773997848    0.08137069459658
H          -0.07439100472059   -3.22287849228063   -0.13136557867709
H           0.40609751288941   -1.93841623515352    0.57788026829234
O          -0.91147217473874   -0.99067547012535   -2.44882871057443
H          -1.63938573341431   -1.48540954829268   -1.08163649596082
H          -1.11362886705541   -0.10045414293397   -2.11602055415575
H           0.05842519996366   -1.07641039152035   -2.39255364800473
O          -0.73543403214036    1.79835262699698    2.77326753821302
H          -0.05712071490947    2.40760424303182    1.42347519212560
H          -1.48673143299986    1.26795412435167    2.41867154200199
H          -0.14294460066642    1.14657134105777    3.15725112481809
N           0.23184548726592    2.51505772616874    0.41115780289356
H          -0.50423824730825    1.95017382417559   -0.11465859871959
H           1.13635489276791    1.98852612719334    0.25672689460675
H           0.27275543906462    3.48451110551162    0.11798845115568
