    26
        -50.47191006  Gyration_radius:  2.4693801813 Dipole_moment: 1.475
 S           0.52538259330470   -0.84606591838339   -1.72283009392451
O           0.71064037274439   -1.62776138244951   -0.51461345994991
O          -0.50696801606054   -1.33642027310659   -2.60223758977028
O           0.39974541874960    0.57517159144594   -1.42160574085435
O           1.88749445207829   -1.00476058762765   -2.54147653727634
H           1.58551587427843   -1.13336767665788   -3.43470565202011
O          -2.33845502817144    0.30213381276094    1.30536274274796
H          -2.56772287759510   -0.11493522312977    0.45141098794281
O           1.42319860373764    1.29776603478284    2.09657511139519
H           0.77751115061160    1.87676518939299    1.65968984199580
H           2.07441771136554    1.07496832108870    1.39794279078065
O           2.70683823858245    0.44291891561037   -0.10758731987297
H           1.92590369131367    0.58285194525647   -0.67394925453417
H           2.93241551567787   -0.48134474993674   -0.22961441610186
O          -2.63372068608945   -0.85868123355419   -1.11027294973303
H          -3.22719767943020   -1.58374139643756   -1.31367508079532
H          -1.85315286724168   -0.98140400361913   -1.68908984712399
O          -0.58633204076351    2.21573117695552    0.39511545256978
H          -0.25172222390341    1.60305733309234   -0.29817091805342
H          -0.76238833181951    3.04412953355917   -0.05296761293179
H          -1.91451469820727    1.14459929995593    1.06558136583061
N          -0.06066227527387   -0.86109556460355    1.89175745862719
H           0.24877081458918   -1.23456014136017    0.95794108353095
H           0.57603663889147   -0.03685060005278    2.12569378759119
H          -1.04823906655596   -0.47533341172393    1.76495455493665
H          -0.02279531478731   -1.58377097147141    2.60077129513078
