    26
        -50.46463437  Gyration_radius:  2.47186110788 Dipole_moment: 4.216
 S           1.81892624917311    0.47146530087940    0.22255072507304
O           2.41935955413359   -0.54730414155266    1.04667041956805
O           1.48443878893351   -0.01848538576478   -1.12605486963487
O           0.69184596766873    1.16376552827709    0.79564670918145
O           2.95468709135152    1.56680408882343    0.00102895267350
H           3.74199885051712    1.08879246760310    0.24004456658700
O          -2.11467594313674   -1.08513288990784    0.42804621340431
H          -2.68519484667744   -1.85243271818498    0.36659781279564
O          -1.28851114651350    2.86157723316543   -0.22430252802064
H          -0.36109566532762    2.93349691037128    0.03114590189953
H          -1.71320632056246    2.48484328646687    0.58378301989485
O          -1.82533210347306    1.32432649014528    1.87379985040623
H          -0.86205663783678    1.22447623485122    1.81917448154205
H          -2.17587177674105    0.48553862798568    1.54613468801460
O           1.23971000410647   -2.66296989429116   -1.33420718923956
H           2.10443674004978   -3.05930398431706   -1.21463046428201
H           1.38868732672620   -1.69469637877974   -1.35955308228774
O           0.20148609624921   -2.04328826302538    1.08916320993889
H          -1.23661563203746   -1.42393390129808    0.76929596851201
H           0.45796830224834   -2.49929589921715    0.26319504091021
H           0.96589263896035   -1.47545415364366    1.29243827245239
N          -1.05482526755394    0.54613503141541   -1.44878718740501
H          -1.37853233465386    0.47028982498307   -2.40701611501442
H          -1.55612326775177   -0.12295344965142   -0.82196002730442
H          -0.01907197569813    0.33205946733450   -1.38098515399866
H          -1.19832468215392    1.53168056708821   -1.05121925544814
