    26
        -50.46463446  Gyration_radius:  2.47181804674 Dipole_moment: 4.215
 S           0.86726127362598   -1.65776602638211    0.28015101096635
O           1.66230992643465   -1.92047879850061   -0.89306756545068
O           1.40595548140161   -0.55148780096051    1.09049250506442
O          -0.54466218896854   -1.47132924644566    0.05718463416418
O           1.01085986772830   -2.95532416363012    1.19370857378921
H           1.78138782838681   -3.37472448492210    0.82507858718680
O          -0.89126305810397    1.90521304447987   -1.18875079632829
H          -0.76580836496732    2.74935605375951   -1.62428694318702
O          -2.65802049067991   -0.48946750158664    1.60982768013880
H          -2.15371982303172   -1.30897854149665    1.54141822817200
H          -2.97669615565101   -0.34669998566692    0.68606364413021
O          -2.73476237183707   -0.22926213656785   -1.03208972727312
H          -1.99171173569172   -0.84485478991752   -0.93314507067889
H          -2.32285558292274    0.61460322666939   -1.26023826926253
O           3.02066941739152    1.11543629305127   -0.21749090246755
H           2.50421289141884    0.50821075844871    0.35252503007236
H           3.82753450352750    0.64691137760335   -0.43797275370674
O           1.09386192708918    0.44843537125241   -1.99959444970559
H           1.18236706084228   -0.49368082623190   -1.77027839266977
H          -0.18478595637714    1.29949249420123   -1.55767770861940
H           1.84184084980248    0.87606661597767   -1.53732132640890
N          -0.59162611493433    1.12063116436423    1.38084315749457
H          -1.46019249316401    0.52248078976969    1.57549515358992
H           0.23415409770731    0.45872688368041    1.32401116541746
H          -0.71236655238554    1.55488054591741    0.43821254158626
H          -0.44394424663676    1.82360966312281    2.09690198402524
