    26
        -50.46906533  Gyration_radius:  2.55473119238 Dipole_moment: 1.404
 S           0.31301667264848    1.17390501672617    1.04947843516077
O          -0.59048293081479    0.23055820780350    1.69629010331832
O           1.60538373834595    0.55995435558405    0.75991111511579
O          -0.29059694716933    1.75012927373491   -0.14297185312013
O           0.55864886267041    2.35743562436151    2.03573142046036
H           1.09983195218780    1.93496819959708    2.73022169163408
O          -0.39808732479115   -3.00726343318533   -0.70053388334820
H           0.00312659021546   -3.56493347779618   -0.03228671610625
O           2.29699643023194    0.79122102185733    3.26793950601673
H           2.18950061311378    0.47155101201053    2.34801569165616
H           3.20123117233424    1.10461098816409    3.34317977144675
O           0.44943193293442    0.98819995986474   -2.57393583450987
H           0.26540187926890    1.33611922562954   -1.67303322445074
H           1.11257264271509    1.56677789627172   -2.95265292646979
O          -2.29979624915458    0.80464339051791   -1.65859177481719
H          -1.74093192487333    0.67205024725904   -2.43312341616973
H          -1.75362346576784    1.35508261704090   -1.06374241976942
O           1.41259501790405   -1.20976870493735   -1.24457343558455
H           1.10315103901841   -0.58971832420477   -1.92720884961865
H           1.57441936818089   -0.64664766028657   -0.46229350756937
H           0.31988078202347   -2.37570264330159   -0.98587200587087
N          -2.11024373363834   -1.15829210120348    0.12385355021745
H          -1.52242946684674   -0.60683043667435    0.82762602992938
H          -1.51885585370089   -1.96505030245635   -0.21822821689174
H          -2.96887203500001   -1.48310176479806    0.55415508211382
H          -2.31126876205846   -0.48989818758573   -0.66735431274370
