    26
        -50.46263386  Gyration_radius:  2.56859783214 Dipole_moment: 3.541
 S           0.30871927788742   -2.34978728830917    0.07183941886062
O          -0.11510571626015   -2.63507577150216   -1.27747210236467
O           1.69805004753250   -1.96346649883615    0.19027263112578
O          -0.56067801497724   -1.39133923377906    0.76697129197102
O           0.12224267827491   -3.70440611189590    0.88655874619886
H           0.39442138332234   -4.35968723608974    0.25232936311085
O           2.10040282656835    0.40327679106339   -0.93507740682410
H           2.25268513991776   -0.53485546985481   -0.70777760860009
O          -1.13395731683107    2.37403772416927   -0.62811307216971
H          -1.72803233486198    1.60589414158582   -0.53174455228899
H          -0.47850025945878    2.10725788688119   -1.27906563970254
O          -0.18894864399351    2.90651676554109    1.78752811864699
H          -0.64051979298063    2.80453435450862    0.91456360729062
H           0.25924542003744    3.75293707727561    1.76001443686068
O          -2.42840905374299   -0.01254396370687   -0.48274286408536
H          -1.77317740421381   -0.57824430218011   -0.01278376837773
H          -3.29180342293371   -0.27285770709775   -0.16051528483326
O          -0.19932690010568   -0.15443224258547   -2.21729683648693
H          -0.11139281728139   -1.11347453657777   -2.04794052040532
H          -1.11915208939936    0.03186939459505   -1.99440361109740
H           1.33882178378470    0.36742700433478   -1.54785683912683
N           1.06132058920249    0.55808440131616    1.46545240611112
H           1.73433733552778    0.25806229716402    2.16257753088441
H           1.54796440925802    0.65478285409988    0.51573096993442
H           0.35577002427981   -0.21256937052432    1.31659874893543
H           0.59502286144841    1.45805903039452    1.73235285642679
