    26
        -50.46934677  Gyration_radius:  2.40570079546 Dipole_moment: 4.749
 S          -1.14806684965001    1.08884457828115   -0.23719169725364
O          -0.47758167491610    0.48296966720757    0.92073129976974
O          -2.44106965357335    0.25072336418345   -0.48653241818609
O          -1.50683434376761    2.45655430434141    0.01752249120303
O          -0.30459539398762    0.92971742255712   -1.43562696915965
O           0.27772777195455   -2.84506106684247   -0.17745359876123
H           0.34605715558096   -3.79864671998572   -0.11269860237348
H          -0.40000964502631   -2.56782042529908    0.48980004411776
O          -1.59001997535828   -1.85022702658982    1.41811164741187
H          -2.47607912992887   -1.78012766203405    1.05533463353018
H          -1.21944574485664   -0.94095441198663    1.37242928976103
O           1.87120944119409   -0.77594686903447    0.85514044506206
H           1.60982291273525   -1.58974102621713    0.39805769827420
H           1.01683046974704   -0.36622981315936    1.10062092223636
O          -1.24884630317779   -1.47201096595725   -2.01707394890037
H          -2.15321836749011   -0.48920291645766   -1.08963840297188
H          -0.72251257530475   -0.67131959749628   -2.17832603368870
H          -0.68044113517932   -2.05474738114938   -1.47996766874672
O           0.76840683936069    3.06851649566094    1.20311548621126
H          -0.11001118723537    3.01333059912560    0.75958027732126
H           0.64961264921000    2.59073369902130    2.02825572796194
H           1.72356767826759    2.19336383762333    0.21632289873784
N           2.03313726886801    1.47499165604558   -0.49661598854304
H           2.80209615157608    1.80128021231223   -1.07079810068724
H           1.14475716849759    1.28627773160929   -1.05584280019117
H           2.23550648245425    0.56473231423911    0.00274335785399
