    26
        -50.46906528  Gyration_radius:  2.55460603381 Dipole_moment: 1.406
 S          -1.50965984584386   -0.14501980463222   -0.52733867144026
O          -1.53015957996641   -0.63671268364823    0.84707107007549
O          -1.15642343860469    1.26805104712373   -0.58073452954570
O          -0.63241286616078   -0.94126258226603   -1.37278729502438
O          -2.94786581128362   -0.30345263864866   -1.11082167523004
H          -3.49535467534388    0.11435034016424   -0.41842091071962
O           2.18307580559299    1.45665834947554    1.67388990203072
H           1.78032430313552    2.00305523128438    2.35039873513474
O           1.28178764492426   -2.45955724475778   -0.33933204617584
H           0.50190829656605   -1.97996451246377   -0.69764879073499
H           1.00547687536994   -3.36975823943912   -0.22490503317525
O          -3.84401784264216    0.50920518301329    1.24069585756603
H          -2.94090799366789    0.14873375974702    1.36098049571482
H          -4.43661113580166   -0.07782190369136    1.71590561535781
O           1.83430439736841   -0.36929887030255   -2.27608578644475
H           0.87996026802773   -0.57285735342823   -2.22176967661153
H           2.25387931650749   -1.07919117035359   -1.77625540402990
O           0.94953394779140   -0.83541912344095    1.84643926174812
H           0.00823718739629   -0.72962575288047    1.60550652027466
H           1.29301823995381   -1.47382599596267    1.19781237072321
H           1.78691432120031    0.54877894440437    1.79497938296826
N           1.36584311555507    1.80703209386331   -0.82384495050148
H           1.56088120898551    2.70516583247395   -1.25190659051723
H           1.72322002037092    1.01528796819038   -1.42278526240961
H           1.77451592383247    1.74469285499167    0.14916045069788
H           0.31053233686803    1.65275626136750   -0.73820303971314
