    26
        -50.45694549  Gyration_radius:  2.75318080692 Dipole_moment: 5.178
 S           0.63213233960058    2.53923094267310    0.21766552853846
O           1.84445947253990    1.74727890884914   -0.00651638118440
O          -0.10096276587401    2.71397470504700   -1.03089803018810
O          -0.17919756293586    2.03730460509966    1.29794525639886
O           1.13425782528022    3.98284292228949    0.64581517910958
H           1.70202090946968    4.22023165341302   -0.08088363891608
O           0.30060353865821   -2.62174087269233    2.22532554357503
H          -0.34015052426950   -3.26419858651138    2.53270745134431
O          -0.94647337806639    0.67290821283864   -2.33047875655440
H          -1.17906515970486    1.00509176132516   -3.19885782186942
H          -0.64303841256273    1.47894982180564   -1.81746793057235
O           2.01354574027343   -2.84930015979146    0.14628319809081
H           2.90221695526454   -2.77994383923228    0.49880806456001
H           1.41759614968840   -2.89501571475917    0.92393968962576
O          -2.86852311581613   -0.32870784956278   -0.66778075374712
H          -3.28013498127984   -1.05295402099169   -1.14071879509750
H          -2.24957819476434    0.10117947765219   -1.29085159011718
O          -1.08199324452757   -0.41219632092013    1.36438255140109
H          -0.19201141227831   -1.79461530425010    2.07444018703119
H          -0.82106927375145    0.52659218480962    1.51591228382647
H          -1.89215372167650   -0.37244468451560    0.82105058360834
N           0.77789409297000   -0.54993812470643   -0.56109877441381
H           0.31479950829973   -0.42219652508800   -1.46647521180761
H           1.35351484243134   -1.41553431425553   -0.50704271026099
H           1.34356592669315    0.32762378817503   -0.35432422163574
H           0.03774446643103   -0.59442269669522    0.18911911929469
