    26
        -50.46974831  Gyration_radius:  2.44437586715 Dipole_moment: 3.541
 S          -0.10900575398469   -1.84689853688768   -0.41089059181548
O           1.23250222658684   -2.36912894020952   -0.48679699887598
O          -0.44621840452862   -1.30842659264716    0.89389638206243
O          -0.41316833708947   -0.88410390085182   -1.47092237446242
O          -1.08200500683090   -3.07162894560201   -0.67846823304436
H          -0.52269648516081   -3.79909899577230   -0.42989938151907
O          -0.02465280708961    2.42878268587740    0.93345471106116
H          -0.30871014585003    3.32690930991331    1.10497181051582
O           2.89922957224786   -0.35231923053779    0.05668017766304
H           2.47184383687500   -1.20449239198112   -0.16847976658426
H           2.59772295817012   -0.16317793875103    0.97581651471106
O          -2.88492486308542    0.09912988243135   -1.39301092481184
H          -1.99424384574891   -0.28590647500578   -1.52209585582746
H          -3.50014671607873   -0.63435146473245   -1.43975277273325
O           1.39735200617992    0.23011280379938    2.16245387394118
H           0.72324154468683   -0.41381710218252    1.88108649355829
H           1.00182110002336    1.09802709643753    2.01153068415463
O          -2.04628214120788    0.82874534159297    1.08303907296908
H          -1.55186348236754   -0.01014337471565    1.16192593746232
H          -0.84650308821193    1.85275819782421    1.02141930126951
H          -2.50939304907599    0.75490038399665    0.22659982133446
N           1.18466276832341    1.17458397969070   -1.12262317408919
H           0.75559206210273    1.78405623156242   -0.39007689030007
H           0.49367372716514    0.42271497997450   -1.37721479298591
H           1.45977260687543    1.71091410069442   -1.93784418181614
H           2.02239971706441    0.63185887609033   -0.68479883185485
