    26
        -50.46336445  Gyration_radius:  2.42370113059 Dipole_moment: 4.902
 S          -1.66899257470762    0.23266491623325   -0.65937270562108
O          -2.36643960686638    0.17495843692685   -1.92040637715052
O          -0.89130645259100   -0.94457246628909   -0.36353558889219
O          -0.86471808629529    1.45586469751157   -0.52770573880548
O          -2.77183897619489    0.33366828826746    0.48881439504016
H          -3.42983411224560    0.92410086661717    0.13302573861666
O           2.44157331380250   -0.24581544571615    0.66938661712403
H           3.30370419696476   -0.62373565060498    0.84585130790169
O           0.63285991094763    1.76198754454374    1.72140972545662
H           1.39473404681058    1.22166198107275    1.47565679894046
H           0.05717173837386    1.79090838534812    0.93801953034817
O          -0.98006393847532   -0.09484074301594    2.86429670798405
H          -1.68906131696157   -0.07793233047922    2.21393681628781
H          -0.41897955543645    0.68244605544448    2.66523540610783
O          -0.28292617891074   -1.04786418862349   -3.03197036581752
H          -1.11710003689837   -0.58177341438440   -2.80371518593326
H          -0.35762480712082   -1.89721258778460   -2.58761745935868
O           0.65468292413934   -1.82311167671896    1.62107019785354
H           1.76907371177248   -0.88710472803184    1.08067008657966
H           0.16024897761494   -1.33600285240647    2.31625185889122
H           0.06024698413123   -1.75333862955795    0.85336206274726
N           1.30603596107543    0.54833489214458   -1.61421943700124
H           0.84551003807930   -0.18443633258855   -2.22206661048509
H           0.48150461167226    1.06899700912686   -1.18839972046216
H           1.83843413797328    0.13205175718938   -0.80675043258295
H           1.89310507904979    1.17009623541530   -2.16122762745174
