    26
        -50.46463302  Gyration_radius:  2.47171529789 Dipole_moment: 4.118
 S          -1.38637869500557   -0.97558484496900    0.83398284662831
O          -1.16533460919556    0.36497002012655    1.40246520562979
O          -2.49383864529831   -1.01082917193378   -0.08786186685870
O          -0.14408295688095   -1.52191360042069    0.34708129289397
O          -1.82820643383798   -1.88575425629124    2.06519328548451
H          -2.76294921041971   -1.98231291787813    1.91565132984400
O           1.28312229381473    1.05068069036058   -1.76162118877392
H           1.42013330681224    1.77380667592727   -2.37505976014947
O          -2.21675832320659    2.35787363770179   -0.01985931724564
H          -1.87153050831344    1.68248735862756    0.60040516447500
H          -3.17177754051468    2.28000236106401    0.01190715362421
O           2.50639296417007   -1.43780758711160    1.23888620660674
H           1.69722206050128   -1.91439269638782    1.46020858136783
H           2.60629934376890   -1.60750365685785    0.27131416151229
O           2.00055515468828   -1.65224089327614   -1.35982211395702
H           1.94822094285490   -0.76035120308347   -1.72794215076046
H           1.11935436159848   -1.81581430238937   -0.98891988138826
O          -1.26828293714813    0.59593155709832   -1.84322056226752
H          -1.62006719056302    1.39234131808342   -1.39808779364077
H           0.31720897034006    0.80160364276022   -1.84399536681422
H          -1.68754762158816   -0.14351402928460   -1.36891878833063
N           1.35618238899257    0.90722051080363    0.93676395271752
H           1.90020901500527    0.00496886500828    1.13729104374184
H           1.40316882709848    1.08215972936295   -0.09220828020369
H           0.34244593179715    0.71876922311782    1.18221086028900
H           1.71623912053005    1.69520357984031    1.46415597557568
