    26
        -50.46361289  Gyration_radius:  2.49247193911 Dipole_moment: 6.642
 S           0.21029514522200   -2.14109546583040   -0.95359833678277
O           0.36271789887306   -1.62065303283014   -2.29144439975520
O           1.48002936350861   -2.18987059158757   -0.22672004178690
O          -0.81263320750346   -1.47313964244563   -0.16646214195079
O          -0.26925697273676   -3.64426626093143   -1.11771142209068
H           0.20344760780759   -3.89961031350088   -1.90273137231074
O           1.21627231397479    1.95370691646403   -0.07996805178284
H           1.82812499888932    2.62167526332718   -0.39132698241799
O          -2.25992135928057    0.66522155291475   -0.96572109651501
H          -1.90942215387337   -0.21748222632858   -0.74840641643723
H          -2.13056370857245    1.19298941922521   -0.16512200382973
O          -1.19029807735436    2.13967372644154    1.21594115248256
H          -0.32181511837024    2.15956044267727    0.76765337378010
H          -1.47375193388789    3.04819971497732    1.32373556213292
O          -0.88029039028351   -0.42170725762060    2.28401055919463
H          -1.05183463512405   -0.95068020262836    1.47827228477798
H          -1.22016917318111    0.46408585957904    2.08652902584726
O           0.10740578159982    1.01137250368702   -2.15953142895356
H           0.29614133195748    0.06226946060061   -2.31825448056321
H          -0.84648097131816    1.01965261824172   -1.91773723665654
H           0.80079313799417    1.55262764593016   -0.92880946083023
N           1.59919150418605   -0.25414018497591    1.45550735883209
H           1.61100198026187   -1.08603581751094    0.76975542230588
H           1.60972232090057    0.62212768059169    0.89584359850776
H           0.65873213969399   -0.31267625070501    1.95951080348543
H           2.38256217661691   -0.30180556776223    2.09678574131688
