    26
        -50.47229309  Gyration_radius:  2.48044585108 Dipole_moment: 1.996
 S           0.88914392137652   -2.09713754621192    0.07408127279303
O          -0.37660592957582   -2.73312661370885   -0.23600372432544
O           1.17392815273483   -0.98611019912913   -0.82886909292200
O           1.02777776219086   -1.70797503965308    1.46254652028539
O           2.00010808846650   -3.19511475296434   -0.19431884546879
H           1.64263655924748   -3.64013960810961   -0.95532348181850
O           1.96503347690331    1.55889595845707   -0.45056209708936
H           1.86522608485037    0.63089593760063   -0.73834985841346
O          -2.23300850552809   -0.99061749440503    0.23652629394757
H          -2.98842603621732   -1.45261291357752    0.60338739258219
H          -1.53136543415315   -1.67871360672950    0.10558507383668
O          -0.55717324102249    2.37965364891755   -1.21883979912615
H          -0.73291782811145    1.48428494342880   -1.62938648988301
H          -0.84076753759288    3.03230976892073   -1.85921252548285
O          -1.48501460563819    1.46023883782025    1.20453607039768
H          -1.82914625107513    0.59348916968742    0.91670309378395
H          -1.27355564266364    1.93980195505075    0.38326034894982
O          -0.97507989547202   -0.04323006077377   -2.08178264304732
H          -0.15431497175619   -0.46357310838247   -1.74984695861761
H          -1.67289570000598   -0.38635827442118   -1.50686821589075
H           1.18310949213692    2.01603988376347   -0.80940726051881
N           0.99192374490413    0.86919381290703    1.88617928164366
H          -0.02729135849547    1.14745274433168    1.76912116495034
H           1.04507032830022   -0.18485503300654    1.79935894773682
H           1.51794984138541    1.26340838097151    1.04806143899479
H           1.37565546472118    1.18389921921680    2.76942408268603
