    26
        -50.47217990  Gyration_radius:  2.3825944273 Dipole_moment: 4.489
 S          -1.15274691738818   -0.18539563916803   -0.85516679505982
O          -0.37211381852147    0.88579941421621   -0.21937992409794
O          -0.41838317309018   -1.46177776800937   -0.70208383627010
O          -2.48564999644599   -0.31875397986577   -0.09981505701874
O          -1.43266579534504    0.10628574845112   -2.23629759970046
O           2.05715021078755    0.36593400884467    0.78543046007879
H           1.19866577645723    0.77020637551100    0.54467661703241
H           1.81580606317620   -0.34352031756982    1.39817765593466
O           0.52132841936857   -1.76723491385885    1.70123003608022
H           0.49442511888904   -2.69578677501837    1.93710967404864
H           0.15144546745376   -1.70231836589199    0.78274256751871
O          -1.29831963246244    2.11303859619770    1.94662050788924
H          -0.92108495936571    1.76852499452231    1.10986050346240
H          -2.06898461241029    2.62786052105689    1.70285217621101
O          -1.80947784901618   -0.48388620194704    2.35968576658323
H          -2.28282835408196   -0.44236770755883    0.88743584565623
H          -0.93483554039447   -0.91360724582185    2.33998800284053
H          -1.63949040860205    0.47374126443925    2.48359890901710
O           0.75512501518345    1.36630107132515   -2.86307030430707
H           1.59089970274740    0.16108731233872   -2.22594309848971
H          -0.13658613560938    0.94351291001814   -2.79489166704089
H           0.72836671141910    2.09010901069979   -2.23160001815217
N           1.88259805394919   -0.66046787307256   -1.61672499214886
H           2.55764693725973   -1.26278510934938   -2.07446272614781
H           0.97989622474883   -1.16091279498772   -1.37579029694043
H           2.21981348134182   -0.27358655549889   -0.68418240699167
