    26
        -50.45602493  Gyration_radius:  2.61225511688 Dipole_moment: 5.361
 S           1.79392993638523   -0.42713457727241   -1.82239470373181
O           1.39062362651623   -1.09978917600650   -0.61416001706062
O           0.79939460026259   -0.47693330744123   -2.88279688784692
O           2.22124366830118    0.94992311416505   -1.54872388051343
O           3.07337513692313   -1.18608071692930   -2.38030097639095
H           3.19894379467223   -0.80525995595353   -3.24502432278083
O           0.62230807236943   -0.09289944209872    2.34542587977071
H           1.54512294301925   -0.26790520792461    2.53425776809054
O          -1.83903731844849    1.17532134696996    2.26335564625569
H          -1.00759091080119    0.75288841415453    2.52875425213270
H          -2.44399974141050    1.07086618669132    2.99916705794919
O          -2.44949424581378   -0.82338358455831    0.38566831283410
H          -2.15020797943716   -0.48924697177242   -0.47270471602608
H          -2.38064159377294   -0.07284528603055    0.99828605587597
O          -1.27422946254000    0.52239343340728   -1.74095854374067
H          -1.77004758812718    0.96407304300410   -2.43266360548305
H          -0.51624600930927    0.06410616228954   -2.20072220372426
O          -0.26946684502222   -2.19041103051361    1.18871957888669
H          -1.15140250569747   -1.88516999278557    0.88269447826159
H           0.32950523739863   -2.05807280775261    0.43364955940000
H           0.26244733364527   -0.96969068196322    1.96809373919767
N           0.39769299521943    1.49128232673416    0.17884595540613
H           0.27967136199968    2.44964085631728    0.49243543026374
H          -0.41681781930063    1.19178501129882   -0.39247679568223
H           1.24475400709185    1.36745760242875   -0.47297640779959
H           0.51016929588970    0.84508525154671    1.00654935645877
