    26
        -50.46047701  Gyration_radius:  2.51716303277 Dipole_moment: 5.329
 S           0.63368478959175   -2.10508680526972   -0.11441341643646
O          -0.38048247678899   -1.35327130802232    0.60771066736065
O           0.40332198948938   -2.21784112615840   -1.53198511599237
O           1.96669381859824   -1.60022921349791    0.21685092290199
O           0.56335626215954   -3.58687866879329    0.45699007347587
H           0.82401460380190   -4.08965471932175   -0.30734954565223
O           0.69794246042938    2.06849936246249   -0.56481270770743
H           1.08061660485881    2.80095738572974   -1.04906475408949
O          -1.70834850499362    0.99101858888464    0.45570463316417
H          -1.34427169259707    0.08510448500915    0.43128760720962
H          -0.97814271883480    1.56225501812891    0.17898326536096
O          -2.60781648801534    0.75315954811560   -2.10151557565158
H          -2.49087468201966    0.81746120165076   -1.13153704224559
H          -3.11664350383274    1.51866328963901   -2.37058338297242
O          -0.44372223571761    0.03391063448016    2.87177437206150
H          -1.15682491509249    0.61609136606276    2.57988537973082
H          -0.50748028363948   -0.73416720484213    2.27006100480304
O           0.09736218877187    0.30031672208646   -2.32002284811968
H          -0.86969480617136    0.37948305497505   -2.42658226029643
H           0.50953710636366    1.35394813450950   -1.25958764470163
H           0.25547779761322   -0.64072085495275   -2.10029157598485
N           1.73320454390077    0.63186879137261    1.45964496967481
H           1.89236214359042   -0.31981570567862    0.97172811769471
H           2.57906314842622    0.94690278448766    1.92115774986687
H           1.42856263617185    1.29534157252828    0.71201984222846
H           0.93910221393468    0.49268369641339    2.14394727431634
