    26
        -50.45602524  Gyration_radius:  2.61186540884 Dipole_moment: 5.373
 S           0.16268911821364   -2.51037897385201    0.62412810231494
O          -1.25046363421491   -2.73402254829800    0.36156525377141
O           0.80628376655841   -1.65803929569825   -0.34244367447631
O           0.38703835564565   -2.02940497507781    1.99247408863756
O           0.86041444570764   -3.93483349391681    0.53483410592178
H           0.30865974567851   -4.48849511302220    1.08033431370493
O           2.02777709602281    1.31374303743303   -0.23494623198700
H           2.85235399986374    0.85719526627877   -0.06318662459280
O          -1.35567261147905    1.36310977787033   -1.77059023124890
H          -1.77506396700766    0.69643359977672   -1.20695588511805
H          -1.03977658943052    2.05595572112294   -1.16764815583570
O          -0.04258449012347    3.14348797817639   -0.03882223343063
H           0.81391380566824    2.70024828089366   -0.13952707961049
H           0.03072883459861    3.98357869562859   -0.49397420020782
O          -2.17758234207410   -0.33983360837644    0.26353111436424
H          -3.07848865702677   -0.39242438103876    0.58757346974986
H          -1.84919268744242   -1.28138574138523    0.22188372447439
O           1.01011316856975    0.17901495706167   -2.28698826662682
H           0.91505227064166   -0.66039694124924   -1.80457334447545
H           0.11211294804141    0.57649209835724   -2.30491185710887
H           1.68257365960950    0.90946301674263   -1.10546086737802
N           0.12274356753349    0.47356782812229    1.47406322018094
H          -0.78846973110310    0.40782693377030    0.97900149413636
H           0.87773206952115    0.76266456603791    0.79460685608239
H           0.06466122768317    1.13677048848955    2.24056817013970
H           0.32244660034386   -0.53033721385040    1.80546476862520
