    26
        -50.45602544  Gyration_radius:  2.6117872347 Dipole_moment: 5.381
 S          -0.25397860840107   -2.49482662585284    0.65445509606852
O          -1.67143742874653   -2.34030315960313    0.94243794107601
O           0.17999022398816   -1.79219031488633   -0.52571169673019
O           0.57269311974027   -2.14716990869626    1.81638292259169
O          -0.02124625086130   -4.04433846615011    0.39273390637162
H          -0.44746261483284   -4.46237417480403    1.13577346006775
O           2.05804053984486    0.76778644113361   -1.03348445748910
H           2.74482054453532    0.11039862751546   -1.15168008774082
O          -1.52523284669658    1.73564119962566   -1.22057210977146
H          -1.85960111448488    1.17294183468990   -0.50667954623782
H          -0.84700737787964    2.29987369046526   -0.81444776383765
O           0.73389533708590    3.05062459131168   -0.19059790081998
H           1.35301494403732    2.41078195121234   -0.57450641010791
H           0.84142719080489    3.86407477799112   -0.68565514736185
O          -1.93699146160295    0.21216973594237    1.06420286391352
H          -1.89451786102062   -0.77911598070907    0.95570288918799
H          -2.63846572506186    0.37512059102237    1.69722039683557
O           0.10703152513074    0.01745311058886   -2.50478074764852
H          -0.60435545971101    0.62870021761896   -2.21331728869027
H           1.32709324182120    0.50235260198857   -1.69343258188817
H          -0.01034318450928   -0.79126809708659   -1.97698611892714
N           0.77264270453745    0.36194616008130    1.29847665195621
H           1.17037037572695    0.98301361954403    1.99619192951721
H           1.27017690470877    0.48085282757368    0.37452765579838
H           0.82121773771321   -0.67368715216793    1.58604263558021
H          -0.24177442587375    0.55154190165076    1.17770350828824
