    26
        -50.46843439  Gyration_radius:  2.53634922492 Dipole_moment: 4.841
 S          -0.84096462298101   -0.35955556877394    0.14987298837136
O           0.63175397027184   -0.38072755181475    0.29919846798816
O          -1.24573722995369   -1.20851281869498   -0.95129056646663
O          -1.43887339573988   -0.92972734498540    1.43918644183821
O          -1.30161163406709    1.01619747787757   -0.03218680043661
O           1.81654895922542   -0.69771228276279    2.67204107568976
H           1.76208465735217   -1.64051209426446    2.83718985280914
H           1.48221173633118   -0.55913934809812    1.76241480963544
O          -1.00927414232893    1.12586974892293   -2.62028891529346
H          -1.20444022609773    1.23058879125782   -1.65824836818913
H          -1.56688893896398    0.39249174447325   -2.89586502870672
O          -0.49185903523072    2.71542570495015    1.80534352599057
H          -1.20864193061782    3.34141005291819    1.92214398985587
H          -0.75502399352121    2.14056025221978    1.05258542716673
O           0.37239604538802   -2.43906860893658   -2.61331159882641
H           1.21250644165448   -0.97466262157214   -2.52749577818792
H           0.61817115381284   -3.28553054487306   -2.23768407927680
H          -0.33364396822299   -2.07733867165403   -2.02523974507354
O          -0.51320188314496    0.50013097329548    3.30581993104585
H           0.40620039149327    0.16248364265026    3.31507994629177
H          -0.45886928671510    1.39704179264159    2.90705549763651
H          -1.12122711557959   -0.35004706291180    2.23069326887166
N           1.32070269146037   -0.00444368500166   -2.15356648822605
H           2.20505270838458    0.42519440058930   -2.40131169936264
H           1.18322075345505   -0.09629138756665   -1.09503429659765
H           0.47940788432003    0.55587502011166   -2.48710185848214
