    26
        -50.46627182  Gyration_radius:  2.44597659822 Dipole_moment: 6.894
 S          -1.96726958682270   -0.31085893605625    0.00690580893485
O          -2.48013393855852    0.05083171933400   -1.28306708761400
O          -0.94848404996937   -1.36581915145073   -0.04014729396929
O          -1.48440645712011    0.80035328974813    0.81393870491810
O          -3.19042115888520   -0.93310457210325    0.80292884844940
H          -3.84111541030962   -0.95957386605753    0.11039018330071
O           2.49765290149804    0.14484897235213   -0.29098010694973
H           3.33546654930133    0.59630661583697   -0.39508885791585
O           0.86549331865687   -1.37838544958623   -2.10625226709736
H           0.15338121780998   -1.52055743473669   -1.46214807321445
H           1.59420785074280   -0.98043497313292   -1.61219897157983
O          -0.41625592102831    0.93143427709785   -2.83233274734143
H           0.07607125412702    0.09003459414759   -2.87439109323341
H          -1.27959474312282    0.69500546386587   -2.45353762709309
O          -0.07530966975532    0.85485756774063    3.01440774673192
H           0.28966352688181    1.74187716782850    3.04056819965632
H          -0.75610141570366    0.87243419853325    2.30126729350528
O           0.58563904683984    1.83340536042085   -0.57324032613757
H           0.27921098583328    1.67899601699943   -1.50419612047931
H          -0.18082206167017    1.57822318957106   -0.02981207049755
H           1.77963004428268    0.84834683525387   -0.42300139725033
N           1.05455492732190   -1.07055589243781    1.57895976352332
H           0.20562375085590   -1.26339996067966    0.95394951329216
H           1.37146466084392   -1.92330399273624    2.02667113127110
H           1.78817348631723   -0.66375115216286    0.95092688182957
H           0.74368088163521   -0.34720989759076    2.27947996496044
