    26
        -50.46698822  Gyration_radius:  2.50093822458 Dipole_moment: 1.313
 S           1.20962527358931    1.03690622664697   -1.13826564947353
O           0.18204370895367    1.93698302108027   -1.60756835406576
O           1.64097136364266    1.34049208696145    0.21757576948276
O           0.84022180259323   -0.36607520235519   -1.27798940857555
O           2.46783811999024    1.23975381705156   -2.07999260433032
H           2.52658703162425    2.18695393782322   -2.15490268108052
O          -0.45712459815147    1.76355864299472    1.78794611656463
H           0.33326135114823    1.85597975448753    1.21697284154266
O          -2.45484072353158    1.46446701594931   -1.84211433283303
H          -2.90117789747497    2.31214176090266   -1.82174494533572
H          -1.49753362047539    1.66875445318953   -1.88290215970322
O          -1.11409289480542   -2.30227444015758    1.50083898827414
H          -0.53138016913731   -2.76715850269821    0.87705509163657
H          -0.49083898106020   -1.81133803440042    2.05898563900772
O           1.02012788354064   -2.81384688382647   -0.19125421560504
H           1.01761456293242   -1.94068802987923   -0.63067285627622
H           1.23881386340015   -3.45190741052301   -0.87121109220263
O           1.17938361825704   -0.75636515482917    1.90714758469554
H           1.44734488948368   -0.01452418317183    1.33556818055456
H          -0.14529232307436    1.29859997248419    2.57024359286794
H           1.57722258848025   -1.53594593673128    1.50766100763255
N          -1.44914728533815   -0.07809457356857    0.10549498871137
H          -1.62929843883820   -0.98278107028436    0.60979940468171
H          -0.60536454204387   -0.22179630243961   -0.49071312887898
H          -2.19854258938875    0.27035110344151   -0.51367807989422
H          -1.20642199431140    0.66785390185937    0.80772029258223
