    26
        -50.46627186  Gyration_radius:  2.44608693578 Dipole_moment: 6.905
 S          -1.39555642952920    1.39719726596758   -0.24735770525740
O          -0.32917245575646    1.09320512208153   -1.20825946371963
O          -2.63787157284933    0.74284281120702   -0.54119112729773
O          -0.90170147527474    1.20598218935271    1.10861712608173
O          -1.67585991688475    2.95156044918164   -0.39778609238506
H          -2.56080749726966    2.92665074469225   -0.74396753466825
O           1.68536376394770   -1.87155356432558   -0.03684553119500
H           2.12675999575754   -2.65015741180201    0.30304919422672
O          -2.22898189101520   -1.95327587037532   -0.53514461591742
H          -2.59450240992063   -1.05281947880823   -0.55157223111505
H          -1.62281314481627   -1.99028524045481   -1.29890541566958
O           1.41645056335278    1.74268670326568    2.18913786007389
H           1.44125525697865    1.20266861554227    2.98187232348357
H           0.48375532894209    1.69999877265117    1.87170642455553
O          -0.13343376517678   -1.45293269598977   -2.22742576081514
H          -0.26086605390768   -0.50980537715407   -2.03653616889877
H           0.58240467572660   -1.74632256520998   -1.64868941393564
O          -0.44412614490450   -1.44308871819460    1.32897745170068
H          -1.16508111651690   -1.80310996387872    0.75018380032871
H           0.84909415609708   -1.75350468782537    0.52452273202256
H          -0.63509357768083   -0.48944786738746    1.37406377675118
N           2.03395668914324    0.75660668892128   -0.19664563109048
H           1.08829979842023    0.96491463835683   -0.65570501923441
H           2.10512182847368   -0.28784309776873   -0.14530800041118
H           2.79140930651291    1.16037568954132   -0.73637267425050
H           1.98199609815078    1.15945683841388    0.77558169663334
