    26
        -50.46698836  Gyration_radius:  2.50121467894 Dipole_moment: 1.299
 S           0.94155523484259   -1.42145438779760    0.96698220708140
O           1.16125908844516   -1.73321561344708   -0.43691846508769
O           1.95466701338029   -0.54372822263627    1.50513910879342
O          -0.41190113754590   -0.93242450439840    1.19813888764641
O           1.04157239269250   -2.78682865756095    1.76500370431131
H           1.98013036740005   -2.94180360924923    1.80113828333607
O           1.74849136907689    0.46659133936142   -1.80195049981966
H           1.77690372179194   -0.38455023584103   -1.31811798291902
O          -2.22285961004635    1.48882817559306   -1.28443641543481
H          -2.72034438112057    0.88621375060754   -0.70578448631016
H          -1.81693911327436    0.88902434647153   -1.92923404812417
O           1.76041152358461    2.08808393587204    2.02111045120218
H           2.64841136001043    2.44803629848887    2.01130658764729
H           1.86676030126163    1.11624295081891    1.95732035508140
O          -2.89695536949738   -0.74744724312635    0.20156328844493
H          -3.53262587912175   -0.95712843499102    0.88665447267977
H          -2.01498171405718   -0.88172327365878    0.60112646140863
O          -0.92618080965588   -0.89031759965117   -1.98520405621932
H          -1.73072970217188   -1.25031538675375   -1.59984599029726
H           1.23154657440228    0.28527295848859   -2.59271002369205
H          -0.19974471063152   -1.28998809154082   -1.47399636091613
N           0.06628950012783    1.45067267603863    0.04434619052746
H           0.76227930659210    1.21171655848278   -0.70860874948497
H           0.50796682486792    2.09218437947521    0.72245186456164
H          -0.83016284977193    1.77136565537992   -0.40168733357119
H          -0.14481931156556    0.56669224557912    0.55621254914917
