    26
        -50.46627191  Gyration_radius:  2.44598914722 Dipole_moment: 6.897
 S          -1.72226409211770    0.28355514495234    0.95830666259493
O          -2.07737828939919   -0.94325125400521    1.61152115418027
O          -0.42458887219800    0.82127495724813    1.38234744391099
O          -1.78715681605641    0.25094675218071   -0.49565376624912
O          -2.79973930508302    1.35163510456823    1.42234351107455
H          -3.26777859179415    0.84101688451101    2.07334320804333
O           2.32071867075179   -0.43995637323248   -0.87443634180728
H           2.96862190180254   -0.83048469953410   -1.46120138139541
O          -0.16509227814328   -2.80978466628867    1.06852113850113
H          -0.95795812976289   -2.32347201326640    1.35062588803337
H           0.57421938208795   -2.36903620856582    1.52815855547487
O          -0.90953275647005    1.92487396402647   -2.30064544972963
H          -0.86791035899539    1.40543621918546   -3.10634531253641
H          -1.41282158128620    1.37180883842065   -1.65777737627649
O           1.64418500064734   -0.91976578037460    1.88087049404826
H           2.09732368848864   -0.79318956760823    1.03700330540725
H           0.91132658596453   -0.28333609339195    1.88780592303360
O           0.04993324158620   -1.57650320939514   -1.24525205748453
H          -0.67752493772842   -0.95126083898229   -1.07859084631348
H           1.44993964680235   -0.92880761060286   -1.05008681252290
H          -0.01095857942160   -2.21867848520373   -0.49138001983395
N           1.03480100334802    1.85321653689226   -0.49544885855388
H           0.38001091005122    2.00447408923874   -1.30717420442574
H           1.52503859701607    2.70253439493412   -0.23780367436358
H           0.42718451675153    1.50522896659954    0.31584024953869
H           1.69740144315920    1.07152494768358   -0.71489143235035
