    26
        -50.47071205  Gyration_radius:  2.4157817041 Dipole_moment: 4.169
 S           1.75306803352783   -0.78792986503263   -0.64395156805775
O           1.02274203177708   -1.80994825416245    0.06624454515551
O           1.04739311121324   -0.34843405191141   -1.85006188050718
O           2.15139349820277    0.34131129346708    0.17924585257689
O           3.09559091427421   -1.46422283236517   -1.14088934653782
H           3.60810417870392   -0.71532607338477   -1.42535110459636
O          -1.33789775494571    2.13184021199525    0.23400685029950
H          -1.79993579363016    2.96553643788275    0.14034028181184
O          -0.59079948106671   -1.34577099111992    2.13471488666147
H           0.06814125529908   -1.70848132914613    1.50870235745945
H          -0.19016273054793   -0.49133430342054    2.42309022622596
O          -1.09271017762341   -1.82378411189714   -1.66731271070017
H          -0.66497487450604   -2.52525786750621   -1.16302191680044
H          -0.33711202903875   -1.23963035202074   -1.90962932683121
O           0.49248645169476    1.06354385225317    2.18287864075017
H           1.20043598121237    0.82202672768525    1.55499331013346
H          -0.13763090240294    1.59656361816859    1.68001776347506
O           0.81070455546058    2.17842474000138   -1.22559372558038
H          -0.54212063018054    2.18580810826116   -0.37303570308272
H           1.49374116935839    1.99558122697529   -0.56284489222739
H           0.78526836575340    1.33294810028890   -1.71820007078490
N          -2.19751023279216   -0.46107454666202    0.31010459124909
H          -1.97851693912417    0.55046327354053    0.22829691503015
H          -1.61846120440227   -0.85952644051599    1.14528938245028
H          -3.19154860932471   -0.60640591854943    0.44575992070550
H          -1.84968819680515   -0.97692066278828   -0.55379329834279
