    26
        -50.46974808  Gyration_radius:  2.44371269572 Dipole_moment: 3.504
 S          -1.61638204490145    0.15406836388527    0.96531993006093
O          -2.62134728256323    0.69656207493322    0.08571957383160
O          -1.08305959145336   -1.11901173962075    0.51731871638408
O          -0.53934442887478    1.09999291803532    1.26237749756031
O          -2.33162183722760   -0.10168812518694    2.35870897330394
H          -3.23787627883871   -0.17738546746855    2.08157745384739
O           2.17745730807848   -0.62038348620522   -1.28986673460858
H           3.09891199336956   -0.80639626348387   -1.47155180284604
O          -1.46403429710370    1.04836610434744   -2.29801260874983
H          -2.06087522159164    1.00294423449966   -1.52260313015651
H          -1.23492239836609    0.10832470487959   -2.48606455643931
O           1.28651415053983    0.13287598280662    2.94057911297874
H           0.60938636479686    0.57344593267901    2.38819144032645
H           0.83360568539949   -0.15539716698485    3.73460319314028
O          -0.48019099740403   -1.40686127657003   -2.11495251527634
H          -0.78791057719395   -1.47848603493309   -1.19395015956682
H           0.48129306818821   -1.33537841032613   -2.05926190470898
O           1.49122006234649   -1.70402000409149    0.95245767229762
H           0.52270638338068   -1.66720025866581    0.82956255350496
H           1.96572504604071   -1.07607170801481   -0.41703315131965
H           1.65820004506910   -1.11683739427613    1.71442213775396
N           0.69483980838116    1.61177427547220   -1.00057543301645
H          -0.16377239940277    1.48347979584906   -1.65954617002778
H           1.13337012874766    2.51877534991545   -1.11417720038729
H           0.29594208957797    1.49996599620788   -0.03295612443663
H           1.37216522100547    0.83454162231179   -1.17028677344721
