    26
        -50.46245833  Gyration_radius:  2.53056395879 Dipole_moment: 4.466
 S          -1.09339172115387   -0.31578143771147    1.93712499589480
O          -0.74776298311980    0.33983598242734    3.17890390417662
O          -1.43478052272468    0.65637753798760    0.88809093913357
O          -0.09727237448863   -1.25154263928449    1.46930434889862
O          -2.41522582247449   -1.14864583161740    2.20236026651059
H          -2.97052483876581   -0.55718422128846    2.70225116848366
O           1.70808670893111   -0.63471032802288   -1.70637677475400
H           2.50012323346932   -1.16704364090510   -1.62930747200314
O          -1.97252680108921   -0.04103358315706   -1.66474210346723
H          -1.99180378310754    0.24280779775280   -0.73465278639166
H          -1.36871415845909    0.57765841234296   -2.10625044072870
O           1.79605207592932    0.50770131881631    2.56784545034143
H           1.94755985646186   -0.43798863840642    2.47607919391686
H           0.89699428053543    0.55967377418457    2.96811869213908
O           0.17591898513564    1.38142534211469   -2.82455095122227
H           0.79063435374604    0.65132948729113   -2.65082279708371
H           0.02808748519247    1.39614830934069   -3.77120605908628
O          -0.30769010827986   -2.05367127443260   -1.06963742903741
H          -0.28184767065816   -1.92462496113404   -0.09992216494318
H          -1.04811524857424   -1.48660781493933   -1.38378887400396
H           0.92721672621256   -1.26555888758555   -1.51059205236413
N           1.00783606476892    1.21305841590076    0.13923935870669
H           1.33931726069417    0.50592550563777   -0.56239221979856
H           1.16205282117015    2.15238179588461   -0.21455179242759
H          -0.02527542856355    1.05798968421294    0.32451459786314
H           1.47505162921730    1.04207990458366    1.07496101122683
