    26
        -50.46245831  Gyration_radius:  2.53052976218 Dipole_moment: 4.470
 S          -1.03692481780703   -1.96957269993526   -0.31059469962816
O          -1.72978234734825   -2.69080170980253    0.73390650204706
O          -1.61500723859187   -0.63406655932876   -0.52153769998202
O           0.39275052825949   -1.88905380056249   -0.12047565744856
O          -1.27577085255945   -2.76265538218285   -1.66165606830219
H          -2.20387086302736   -2.97814362518228   -1.64700328052912
O           2.02918912103263    1.38539499557622    0.44340646787861
H           2.86023366886828    1.15718712838155    0.86045458644328
O          -0.57327150338246    1.19099159699646   -2.21776617408456
H          -1.10055428846401    0.51444830352406   -1.75926152523488
H          -0.53682279943179    1.94274100833520   -1.60483960023077
O          -0.00011725431166    3.13660479897508   -0.24882136241360
H           0.20864538093898    3.95248489412527   -0.70594693373278
H           0.84620319898165    2.71257104232073   -0.03674492873156
O          -0.17320967832648   -1.76798639854080    2.63003156976909
H          -0.86616121991601   -2.20121982248468    2.07905458519580
H           0.64904971982190   -2.12338274475609    2.27900332661121
O           1.69812285420983   -0.09136508829850   -1.60451787029142
H           0.94790501889585    0.36427532265138   -2.04933981449348
H           1.97842965784135    0.81928456874615   -0.40653150496254
H           1.29927324980861   -0.86936828688803   -1.16500691945750
N          -0.35999100828446    0.58259148301231    1.42357206169698
H           0.58946270590411    0.89288718665122    1.10058551914397
H          -0.85203172242284    1.36029319534764    1.85297853838891
H          -0.90722277688868    0.22035898365609    0.58994925850113
H          -0.26852674394064   -0.25449840041524    2.06710160381443
