    26
        -50.45482865  Gyration_radius:  2.44408579426 Dipole_moment: 1.920
 S           0.68369334665070    1.46108315939671    1.03681881455842
O           1.61344832235918    1.11240092117731    2.07823403538352
O           1.16689369319411    1.18984812096206   -0.31307552705730
O          -0.64500193986180    0.91414031809105    1.24505484508385
O           0.53170684970500    3.05062737204039    1.06758504136150
H           0.39573180323312    3.23049237209908    1.99157222656766
O           0.08794534514333   -2.56757566587367   -0.04498879114225
H           0.16648224859446   -3.52015478272770    0.01481736665375
O          -0.69120818551269    2.40223353863208   -1.64151339462719
H          -0.29664341474927    3.13076483698075   -2.12325410477282
H           0.01171021623890    2.04797684259542   -1.04421677027251
O          -1.30453013533840    0.05075099912263   -2.43061355749706
H          -0.33511057595915   -0.36590023125348   -2.38910846388096
H          -1.16421389276962    1.03893067026380   -2.25251466802295
O           0.98067993980348   -0.86772863294241   -1.96006955686043
H           0.77519443838509   -1.59918586443221   -1.34502264465880
H           1.25116372810259   -0.12149390931268   -1.38269101636600
O          -1.97686688617718   -0.79926840428573   -0.19727315283429
H          -1.73007536398745   -0.31726428442969   -1.50936948934459
H          -1.38267300603972   -1.57025105013869   -0.11634624072211
H          -1.57336920973924   -0.10907143446621    0.38954727842715
N           0.72711880166097   -1.54708378525434    2.27716469844832
H           0.39542352608661   -2.18872034915567    0.84381354514613
H           1.33475985636981   -2.04759969358155    2.91542635180188
H           1.13214933423209   -0.61826424044337    2.13768667787961
H          -0.15440885963135   -1.38968681307040    2.75233647675051
