    26
        -50.46245830  Gyration_radius:  2.53057372323 Dipole_moment: 4.469
 S          -1.27701003795919   -1.71301069662404   -0.69643037097556
O          -0.31653424131025   -0.95143671108735   -1.50869081076693
O          -0.89510370341613   -3.10325193530372   -0.58422700369061
O          -1.50951154802254   -1.06330521789096    0.57257881796163
O          -2.64693868791976   -1.66874472034819   -1.49189979136066
H          -2.51979831947400   -2.27804944232489   -2.21342922555949
O           0.67101200136410    1.71814746318529    1.68316056490929
H           0.54552155835983    1.74461159178799    2.63193716886770
O           0.54285642186919   -2.70472215486439    1.57069152023192
H          -0.17240837860705   -2.36999447623152    2.12028671017379
H           0.07897783000254   -3.05172701547541    0.77321612416305
O           2.02273860798949    2.31956783476446   -0.65656658731616
H           1.62219971178517    2.32216564363381    0.22698117094160
H           2.22907455392077    3.23138236109096   -0.86687086510072
O          -0.45945732854296    1.72096062205224   -1.86849885288776
H          -0.47736981535909    0.75137190988753   -1.94328680828127
H           0.45616284747689    1.94018275927802   -1.63252593764116
O          -1.60654469883911    1.60625682291101    0.55013659997894
H          -1.74532129943912    0.63831533994882    0.58769176124304
H          -0.26681112052138    1.74624311922582    1.27648360366296
H          -1.36424582461877    1.79431405884876   -0.38488399595378
N           1.44427123339435   -0.51932410541514    0.37595326462534
H           0.80330956424804   -0.59791201389868   -0.46579863649823
H           1.17461727587361    0.32848593155055    0.93321384669753
H           1.25579434596018   -1.39793223180331    0.93784541896252
H           2.41051905178389   -0.44259473690149    0.07293232361587
