    26
        -50.45482860  Gyration_radius:  2.4440231619 Dipole_moment: 1.923
 S          -0.95948465301122   -1.18873781407983    1.15784271577692
O          -0.86641470928584   -1.43043264283101   -0.27814187141802
O          -0.15486519704718   -2.07253679850367    1.95910777114181
O          -0.76153989070249    0.21435265467421    1.47408225119655
O          -2.48463930669132   -1.52140996668524    1.49539763657100
H          -2.48881446100535   -1.54596288972003    2.44627895158421
O           2.42078788346346    0.68658911449825   -0.51641678653760
H           3.34785507027807    0.89250381363942   -0.64001081957028
O          -0.93009888935704    1.47062670810724   -2.14250062767186
H          -0.26780533414465    0.67029806933566   -2.33188715461022
H          -1.77968088585916    1.02550029697012   -1.81514125409189
O          -2.79651429408565    0.10840601579858   -1.05065839623830
H          -3.48075943851405   -0.43376518026356   -1.44611333568499
H          -2.14370227958585   -0.51411068328442   -0.64776659088422
O           0.65294556216020   -0.47257843201384   -2.21569734805851
H           1.41687849479744   -0.12233188135835   -1.71653182696740
H           0.15218705311295   -1.01033518873878   -1.56491862525652
O           0.17029573633513    2.13508214584487   -0.01926684477220
H           1.07182546683113    1.79202510643120   -0.17336299876606
H          -0.49952968865077    1.89057513854764   -1.24539704087530
H          -0.24024694248761    1.48702327652009    0.60938678547470
N           2.14465196297048   -0.46290663048906    1.81705728004116
H           1.35093982188662   -1.10719584544676    1.78354708604078
H           2.34257063957925    0.19066129988697    0.36449912298678
H           1.86604720742066    0.27786530770782    2.45049791813793
H           2.91711106159219   -0.95920501454559    2.24611401245050
