    26
        -50.46999374  Gyration_radius:  2.45739421686 Dipole_moment: 2.406
 S           0.53051904596520   -1.02059644659574   -1.49515684457286
O          -0.82913566842152   -1.50762157982847   -1.32588869968798
O           0.54978760312604    0.34484782788760   -2.00294028580796
O           1.34615260227281   -1.17441623338848   -0.31036539873487
O           1.17048027195201   -1.93898211728097   -2.61084343470021
H           0.40343735281451   -2.11353177899125   -3.14433066935197
O          -0.75883229877632   -0.14795500039143    2.57146507147135
H          -0.49623775160677   -1.08678197738703    2.47238546859334
O          -1.33555962368948    2.07230161817331   -1.15525249483011
H          -0.76936545379042    1.45329690459141   -1.65749828481506
H          -0.71540548937453    2.70806918469579   -0.78124122574009
O           1.48423130494453    2.47540326916836   -0.68376271906733
H           2.33590722533197    2.77537108232394   -1.00364293485988
H           1.25535427327415    1.68080228319173   -1.21072455858808
O           0.19830353173697   -2.50905851088272    1.70002282752317
H           0.58227167461963   -2.10057636650137    0.89747648566395
H           0.93054009927622   -2.92564927348771    2.15767523696445
O           1.47830767786022    0.83355702539647    1.52874204845544
H           1.58893889358469    0.07489912998484    0.93018032301335
H           1.47779737169875    1.60797986254955    0.94379752120173
H           0.06372533109905    0.34976546510944    2.35415627231321
N          -2.12239776073141    0.03299366648526    0.37270575419701
H          -1.61697661335339    0.00131204487765    1.33337007335078
H          -1.68072477016695   -0.68896117991320   -0.25547268009495
H          -3.11408569858172   -0.15022513884730    0.47870249273965
H          -1.95703311106044    0.95375623906153   -0.10355935464390
