    26
        -50.46309079  Gyration_radius:  2.44675776229 Dipole_moment: 4.807
 S          -0.78955025968486    0.80169976668317    1.63311891050153
O          -0.96209985625044    1.26246760352756    0.24672171599803
O          -1.97302097504923    0.20686569374375    2.18394067215170
O           0.43358324448573    0.04330880745224    1.77857181699760
O          -0.52805296343713    2.14898141339221    2.46809684524751
H          -1.39833162181168    2.41736680943987    2.74734062208260
O           0.97741005660107   -1.95242950739036   -0.10895278733923
H           1.37557679152035   -1.92004606481358    0.76528063403524
O           2.37253380076741    1.75601890900134    1.29806227928544
H           1.73784356659758    1.09720628569591    1.65761520533622
H           2.08713019651414    2.59856448235960    1.65529392732144
O           0.35482345647800   -1.24371206546002   -2.80176328915362
H           0.05548321096268   -1.85768958343230   -3.47438876126082
H           0.58337754901586   -1.77560236133293   -2.02648861260391
O          -2.09117044347853   -0.22921687752948   -1.75578215224870
H          -1.86577662923028    0.47468469022334   -1.12734385979388
H          -1.27737672913276   -0.43284451612444   -2.24126931125945
O          -1.58106657625766   -1.79462679524552    0.38771461034949
H          -0.00385599700133   -1.96093087540720    0.08930996606728
H          -1.79496218708442   -1.20837649308379    1.13090510586087
H          -1.98090244558242   -1.37733015787532   -0.40378476865073
N           1.27967703866985    0.60175666197472   -0.85491119120309
H           0.33128058199999    0.95659926342839   -0.52103278045577
H           1.98231138929029    1.11634569956952   -0.29015393549736
H           1.27958767818819   -0.42001059545562   -0.57579167148583
H           1.39554810291442    0.69094979651061   -1.86030921031966
