    26
        -50.46178313  Gyration_radius:  2.41361815145 Dipole_moment: 10.258
 S           1.53740862039215   -0.99671955896669    0.25784824346990
O           0.34146602770556   -0.84242448823955    1.09124163909533
O           1.16926300881538   -0.79606445833274   -1.15484269391081
O           2.65266919157702   -0.22075845491586    0.68111939844761
O           1.92462344627912   -2.52646656471960    0.37128421143415
H           1.12025259596820   -3.00526019846666    0.17048066843081
O          -1.75578184503795    1.60222148383202   -0.60916866809494
H          -2.26911619976395    2.30397960538373   -1.01145722231911
O           1.82710819822241    2.38334702338021    1.04778240353652
H           2.31316597926273    1.54335104786239    1.06078650630415
H           1.03692366377424    2.24403807868095    1.60475686601012
O          -0.58017350180772    1.52585006862539    2.04256195995175
H          -1.18087581487817    1.70789918055776    1.30974344290667
H          -0.25129989509092    0.62708187743862    1.87751792310176
O          -1.11696331566133   -2.81532474026699    0.42205415953302
H          -1.59477532159333   -3.20879049909909    1.15412855211491
H          -0.58621660502527   -2.06510708348399    0.80651075304801
O           0.70252859374503    1.89534293267382   -1.26731175063996
H           1.04882442093881    0.99466219867098   -1.36859148078374
H          -0.78632609796331    1.79253350112725   -0.85085321770729
H           1.17710193062803    2.25702357503513   -0.47167087661346
N          -1.38070583793550   -0.88643716468763   -1.45059331517858
H          -1.64106659583034   -1.65600893711184   -0.80853825153088
H          -0.29857516547535   -0.85074642670633   -1.41083562374357
H          -1.70149736154882   -1.06047580608781   -2.39706847656595
H          -1.70796211044175    0.05325378776543   -1.09688516069147
