    26
        -50.46309154  Gyration_radius:  2.44667365335 Dipole_moment: 4.791
 S          -0.59275566770703    0.65795825464718   -1.77400853422367
O           0.39666948699923    1.15541036367929   -2.68578773496890
O          -0.36731711256366   -0.74043718761969   -1.37712350324594
O          -0.87164242125823    1.48494472658961   -0.62034217789606
O          -1.97860341973102    0.62057614222706   -2.58580033730476
H          -1.70979632291160    0.50640933973182   -3.49248331751130
O           0.80197168130063    1.24070644403878    1.61221521693133
H           0.24968452357200    2.00856857195668    1.44155250920272
O           1.55344879668545   -1.43836866084736    2.24568475472732
H           2.39198580832599   -1.69503002019315    2.63294783734056
H           1.53851438481496   -0.47096878070585    2.23924350573689
O           2.04068187702996   -1.74669129413937   -0.54243915328593
H           1.82783263787279   -1.82899798327307    0.39954170891095
H           1.19913555418379   -1.59414140771951   -1.00045002042788
O          -3.15159336826415    0.58778367294113    0.33806894488619
H          -3.68018668647036    0.32642034811942   -0.41771466248408
H          -2.40040854315943    1.09749299672967   -0.03893505484209
O           2.14092885700888    0.95321920276510   -0.61112325289186
H           1.62290796000298    1.16159162857360   -1.40482043359123
H           1.36133694897879    1.17551114749944    0.78455021208508
H           2.35078419246302   -0.00204244491430   -0.67392774624366
N          -0.95890776166526   -0.72040957991763    1.13812207178718
H          -0.71934690937432   -0.87651625488844    0.11109152320895
H          -1.94614621342520   -0.39930354080458    1.14581851495595
H          -0.77481701303227   -1.54053205104571    1.70880490896493
H          -0.32436127990008    0.07684634648050    1.42731422018304
