    26
        -50.46169779  Gyration_radius:  2.4890125752 Dipole_moment: 4.363
 S          -0.56897536519149   -2.13342739917874    0.30220627258680
O           0.85877595794797   -1.84580983681306    0.22580184547887
O          -1.24531850146883   -1.11798159299534    1.11743080070323
O          -1.19449555761358   -2.33564128425738   -0.97236519910586
O          -0.68866105203201   -3.48481881282101    1.11613944749375
H          -0.13346259071190   -3.30744596166617    1.86895464554786
O           1.74276153911360    0.74037589640486   -2.47201720374050
H           2.18057592131912    0.04110514819634   -2.95998290413419
O          -2.17143278815102    0.96255540263690   -0.08203979102780
H          -1.86469798736345    0.12917126437230    0.36919895946898
H          -3.11763138772130    1.00664275668885    0.06312841186143
O          -0.10911279257803    2.45797993102483    0.75095178530805
H          -0.03079016806074    3.18352845933024    0.12898152204901
H          -0.92371855549988    1.97173058045705    0.50045345605443
O           0.53811761945946    0.19198320847302    2.65699695554722
H          -0.12313655974812   -0.33550348102549    2.17317976228769
H           0.15889991246322    1.07032430701007    2.73557239484011
O          -0.75957924788728   -0.04289174214012   -2.26470907892384
H          -0.88112412922213   -0.95927704833939   -1.94614408503486
H          -1.32582840366623    0.49023068826933   -1.68854557683592
H           0.77933586659383    0.50031715152707   -2.48095343383694
N           1.79422285150319    0.57917003265718    0.17680245148279
H           1.39714336548643   -0.40454130832478    0.29110746517613
H           1.94208985082671    0.72138274918279   -0.85648638521454
H           1.09574752328190    1.27034741107482    0.53042522146311
H           2.65029464892050    0.65049349029568    0.71591226050453
