    26
        -50.47208020  Gyration_radius:  2.44950884758 Dipole_moment: 1.509
 S          -1.80885678525757    0.24478927758533   -1.05179859719770
O          -0.57037564393017    0.39314676833947   -1.80784643347971
O          -2.06260960630607   -1.13844890592486   -0.69534717564091
O          -1.87309936115320    1.15821500699148    0.07175547401435
O          -2.98833956500627    0.66878617821446   -2.02118370400618
H          -3.10888958991547   -0.10804248305378   -2.55759992653651
O           1.05797917666923   -0.19471275695171    2.32010780652638
H           0.18162367750225   -0.63544020279267    2.26616546520502
O          -1.44958396619960   -1.04442620152087    1.87973406824776
H          -1.68231242372790   -1.17999958886945    0.93894217018352
H          -2.02268073071546   -0.33117658308407    2.16873133730237
O           0.41914051153102   -2.02521412380592   -1.43529799743643
H          -0.35516495109530   -2.38763883635227   -0.99110930496132
H           0.10927652055168   -1.14867093362764   -1.74397887008418
O           1.86140303699537    1.34755864513544   -1.12433167436772
H           2.24007085455996    0.51920770890275   -0.77928178927583
H           1.05031803228305    1.07744662743068   -1.59406614793422
O           2.36134477196516   -1.10758388036884    0.07341478343958
H           1.64455675323201   -1.53139817239017   -0.46948232516196
H           1.60951232623651   -0.61715957171685    1.63800564372016
H           3.12987101687101   -1.67353957681026   -0.00659473982905
N           0.45267139920994    1.97690340571481    1.00013364813110
H          -0.51461180791257    1.75347444980753    0.64585506423112
H           0.73153607357855    1.18502118396865    1.66796934399755
H           1.10499598665919    1.91210270418749    0.16251079135727
H           0.48222428346600    2.88679986102590    1.44459310954512
