    26
        -50.46433741  Gyration_radius:  2.51884735665 Dipole_moment: 3.791
 S          -1.62960451694492   -1.17714627431283    0.90196763560813
O          -1.87237240364190   -2.07814552602323   -0.20393228495621
O          -0.56392481522753   -1.65891861210911    1.77803555346621
O          -1.39212647046489    0.19294806192456    0.48360606043126
O          -2.95187795020788   -1.14631566240870    1.76955782024923
H          -3.14963890871198   -2.07360123151087    1.84919335549440
O           2.23858948048189    0.93471594026341    0.09266153720756
H           3.04367654623959    1.44077810971477    0.20348355589776
O          -0.65849230297936    3.32815205444476   -0.82841918864866
H          -1.61358876375265    3.32814606399758   -0.74456504430396
H          -0.43722998857933    2.55000992204259   -1.37261976432788
O           0.03357671061501    0.78016012833999   -1.67982840443870
H          -0.57136440467991    0.55746656319545   -0.93867552618274
H           0.90892844065347    0.88181285820168   -1.27658749506149
O           0.14423688624860   -1.93990827919256   -1.89996272119784
H          -0.69212653435139   -2.12229658363676   -1.41574680082190
H           0.07073789711097   -1.00852323171048   -2.18127773514862
O           0.31033198302451    2.05138980570945    1.38374007990834
H           0.02916265502688    2.73078146956573    0.73793941727132
H          -0.36647444250403    1.35282989410205    1.29895387107404
H           1.54014167100550    1.38658319349297    0.66794410612061
N           1.54607899168560   -1.67119211913244    0.28182320265464
H           0.74050610145891   -1.69317082149671    0.98528786496358
H           1.09212031565931   -1.86552777372513   -0.67615202969399
H           1.95508591482753   -0.71300061621321    0.27104235191748
H           2.24564790799890   -2.36802733355120    0.51253061250662
