    26
        -50.46843454  Gyration_radius:  2.53692499069 Dipole_moment: 4.843
 S          -0.69581584072810   -0.50702345545979    0.34064931846201
O           0.64154459344840   -0.38097205814140   -0.28147233028699
O          -0.64975813864120   -1.71379510057162    1.28208658477677
O          -1.00029209455285    0.69815834912156    1.11055881311186
O          -1.69859308244975   -0.76082227647757   -0.67288656853994
O           2.79122631786531   -1.62552853852871    0.69976861859323
H           2.70724039216816   -2.52573682175484    0.38104915493333
H           2.07196943785836   -1.11587875852094    0.27377408069922
O          -2.00851076818202    2.09696906579281   -0.84505046352892
H          -1.68853255140494    1.68930053760806   -0.00491253512620
H          -2.72218562099854    1.51955350949005   -1.13119564911467
O           0.81676191494373    1.38552466204528    2.88427887989645
H           0.14722035596991    1.21903818782382    2.18401619752247
H           0.33599925545706    1.75744132418956    3.62571335880679
O          -1.28963584826596   -0.77498312932400   -3.26605304544080
H          -0.33136043810665    0.56725338560037   -2.89626349760761
H          -1.00495710107173   -1.65096582507253   -3.52990250932165
H          -1.55897533218366   -0.85283906253995   -2.31900913340646
O           1.25232380046404   -1.25439146112582    2.88071870112064
H           1.21815030315561   -0.28052113502262    3.01038031259404
H           0.08935329242166   -1.55291623525467    1.98322075347641
H           2.00445223942404   -1.41076286610784    2.27297546707378
N           0.07466898275320    1.23661863962144   -2.20345542906714
H           0.77038684747196    1.85617926775650   -2.60368682799542
H           0.46586704962868    0.62230398963533   -1.41763695503092
H          -0.73854795642233    1.75879578519470   -1.75766532654009
