    26
        -50.46433735  Gyration_radius:  2.51880453708 Dipole_moment: 3.797
 S           1.01706943849015    0.37206953686003   -1.91875648630226
O           1.67165424676668    1.61426293874349   -1.56939473817424
O           1.80763763455537   -0.79303348444517   -1.52793039636476
O          -0.34315321322825    0.28079592569505   -1.41904380717296
O           0.90655041591978    0.33744365246463   -3.49629321516391
H           1.78817939761363    0.58478802733756   -3.75461503275764
O          -0.51794246977219   -1.45138314545043    1.87573122493907
H          -0.85816560860779   -2.07429199120400    2.51825206148235
O          -3.48086882073842    0.26808348517894    0.07628090086619
H          -2.77591763844144    0.77796013820037    0.51625977458457
H          -3.62541735279940    0.69456416411214   -0.77012084224670
O           1.60193201788471    1.93040103807954    1.04910676731345
H           0.63840720001827    1.98896689696228    1.19092944424182
H           1.71705107925207    2.00775945196052    0.07541963101660
O          -1.02605348433917    1.18856287949916    0.98267027448497
H          -0.79061451013611    0.94332733380524    0.06112633056431
H          -0.91207170672747    0.37840767131923    1.50217701022869
O          -1.71811905143943   -1.76773553796012   -0.38069519127310
H          -1.16629796727401   -1.18796683037361   -0.93970757915223
H          -0.98121234338938   -1.66569925343119    1.00255353562308
H          -2.53063485343141   -1.24373738613270   -0.22907845734486
N           1.93057032374391   -0.65611591690897    1.05207180863966
H           1.93092291065946   -0.81141113454496   -0.00635146138597
H           1.88771517944123    0.41283308763783    1.18209057547533
H           1.06575861051918   -1.07741105227223    1.45224410121186
H           2.76302056547016   -1.05144050513492    1.47507375667932
