    26
        -50.46169742  Gyration_radius:  2.48925290983 Dipole_moment: 4.351
 S          -0.10857393864142   -2.04566457143840    0.87921308229485
O           1.21980534322490   -1.45081461719639    0.78504203063684
O          -1.07793757129079   -1.04546098271280    1.34038681012483
O          -0.53073228771671   -2.72692908632852   -0.31007511008017
O          -0.01346688206894   -3.11729434542604    2.03920034624168
H           0.41486708076147   -2.61888326400780    2.72809333867733
O           1.78730279684298    0.45367235037375   -2.50888664840059
H           2.41970944117604   -0.22050277942888   -2.76259443385826
O          -2.30977543107044    0.34519502568837   -0.44108938501342
H          -1.87523418503189   -0.23567093775058    0.24160701186462
H          -3.25225607178416    0.19725879238731   -0.35021335873011
O          -0.73316931147784    2.46471872810641    0.01014194376099
H          -0.75094646841907    2.99213284221460   -0.79035536470116
H          -1.38757321479329    1.74577443526120   -0.12307621858414
O           0.19163639242351    1.02614277426504    2.50935386228863
H          -0.37985866231184    1.77268684880045    2.31537946659869
H          -0.27906471516916    0.24243571839197    2.17207008003904
O          -0.48400483891778   -0.83251500324269   -2.18723527910210
H           0.90849969655835   -0.00813048360680   -2.48741975055409
H          -0.43115784327655   -1.63030904419515   -1.62436704189186
H          -1.21366380497106   -0.31974262268252   -1.81122749864127
N           1.59070092719475    1.02277307772613    0.07642181566602
H           2.34679151669937    1.44311154678163    0.60575362476026
H           1.81269632293820    0.91444273637933   -0.94763429746071
H           1.41325133564481    0.04004141018314    0.45226807619854
H           0.72215435344929    1.59153144146615    0.18924287784320
