    26
        -50.46885310  Gyration_radius:  2.44100207154 Dipole_moment: 4.295
 S          -0.61574087911538    1.43071300775910   -1.15053872738190
O           0.33931499068273    1.73232004500400   -0.10593122577519
O          -0.02166726144436    1.08115104680904   -2.42019609518419
O          -1.57455188515917    0.40773795118856   -0.71425605896976
O          -1.44984334620766    2.74915609511766   -1.39710621925475
H          -1.66068778347824    2.65784865665346   -2.31955584229444
O           0.36301281852277   -1.88315752149771    1.60832759696415
H           0.38935190765793   -2.47367004172693    2.36159975871459
O          -0.17495839347735    2.20394161525471    2.46509130703143
H          -0.00261883370314    2.18485115235882    1.50240393771323
H           0.68297436030038    2.28748035586469    2.88474031477692
O           1.61169489708485   -1.01241826045554   -2.23764007555350
H           1.14527621563702   -0.19654245313961   -2.51441456180543
H           2.10446098621167   -0.74968240996837   -1.42636111756383
O           2.19349888282127   -0.20136493630906    0.22835431320900
H           1.72881827316050   -0.79705900008612    0.83278750610602
H           1.62992539721027    0.58954968271266    0.14884569665217
O          -1.47850297491119   -0.10762238580519    1.93877980394969
H          -1.67016178612218    0.13028246664297    1.01233821446514
H          -0.34021624630566   -1.19054881016989    1.81436130537659
H          -1.11080520451155    0.70870508035729    2.33081028658427
N          -0.43364299185992   -1.94345399020046   -0.97286731512955
H          -0.11783281142624   -2.14720347307495   -0.00132980441513
H          -0.97563652478429   -2.70768982476293   -1.35952218459362
H          -1.00097348110952   -1.05244672699508   -0.92936100031232
H           0.43951167427792   -1.70087733141499   -1.57935982327657
