    26
        -50.45648600  Gyration_radius:  2.49238653775 Dipole_moment: 7.656
 S           0.50215020211911   -0.87639183760560    1.67482049723967
O           0.21969334515307   -1.47371371778251    0.35302730628655
O           1.23840760238124    0.36242813224675    1.52791616940576
O          -0.72682622339703   -0.73936518062336    2.43846715050611
O           1.40267782212078   -1.90424070797421    2.43184088758019
H           2.22514506885600   -1.90662523432069    1.89999494201570
O          -2.21180311490755    1.12787627179842   -0.86583840181284
H          -2.87110039339420    1.82061870564710   -0.92401494123076
O           0.03976839202857   -0.27950091417772   -2.05474517257962
H           0.22013995558840   -0.73982264310426   -1.21340378316160
H          -0.81332984359132    0.15492151064139   -1.93425843594036
O           3.14430306374978   -1.23677486649834    0.54887663813442
H           2.73123146144741   -0.38574821937412    0.77561067458397
H           2.74846321417169   -1.50620427233438   -0.28419628663889
O           1.50204789805824    1.98139857573069   -1.98701339951825
H           1.10075235457027    1.09288759302227   -2.10254285107026
H           1.51417747556839    2.39166580855512   -2.85227995169677
O          -0.13743337748658    2.20702707062608    0.17890838346949
H           0.49709045593745    2.33797058081963   -0.55271432360189
H          -1.40095147358659    1.56310096830216   -0.43026139386469
H           0.33399979288692    1.60694741101593    0.79129090139096
N          -2.31293912520052   -1.13493964394855    0.50273530212592
H          -3.10902819356398   -1.76182038212138    0.48119574554017
H          -2.46368167175028   -0.23651022293878   -0.02948882782567
H          -1.95470215053415   -0.90752264434236    1.48319373558604
H          -1.41825251726560   -1.55766212125769    0.14287942508115
