    26
        -50.45911302  Gyration_radius:  2.4354633045 Dipole_moment: 3.780
 S          -0.17031686127531   -2.12765127727821    0.35128570146681
O           0.74538325064034   -1.59541262160691   -0.64730189134618
O           0.32443051928569   -1.93356823817907    1.69788676531910
O          -1.52688612588991   -1.64682386052972    0.15739001875727
O          -0.23472645383921   -3.69476943720940    0.12695272270773
H           0.55153938868274   -3.99712682237816    0.56929480069019
O           1.07960511200995    2.22896861719599   -0.93753582143893
H           1.66879716650273    2.97505040851059   -1.04916373757981
O          -2.05408795512334    0.20180999075463   -1.45586928314274
H          -1.90171841818333    1.01619667190874   -0.79568901270787
H          -1.93901783022669   -0.61842347748652   -0.84761975003157
O          -1.38722346761380    1.98887391832801    0.16341734285485
H          -0.52089279577718    2.24637268804630   -0.20876219461225
H          -1.19147202153669    1.45527271419252    0.96714214741876
O          -0.90070931808310    0.33396777443936    2.22012157375522
H          -1.76844503054145    0.08644277866283    2.54560739777226
H          -0.43717830285875   -0.51696378770369    2.05591145730069
O           0.20929312847323    0.17643031889136   -2.52430045567856
H          -1.18136335355003    0.20029180163416   -2.05008110270193
H           0.60701052678756    0.98040959144483   -2.13888380570302
H           0.52521578915112   -0.56428784717242   -1.96004260870535
N           1.96795885614340    0.52160178269663    0.83563514601728
H           1.63956353136009   -0.34109660628215    0.40032834246932
H           2.94371463764501    0.39140470711627    1.07150541420935
H           1.49764274122870    1.61470322232931   -0.25090427608129
H           1.45388328659382    0.61832699965400    1.70367510899405
