    26
        -50.45538151  Gyration_radius:  2.56575681536 Dipole_moment: 4.106
 S           0.11238237786830    0.98131627061077    0.36112142384259
O          -0.35108729585340    0.78740131150238    1.71315218046960
O           1.55969948782705    0.85389449307812    0.20819216712469
O          -0.55604285946923    0.03618752379675   -0.56742337579183
O          -0.25780804211490    2.40072903316851   -0.12153440682549
O           1.52051406817060   -3.03930267845995    0.15963328186954
H           1.47343736498094   -2.39179586507117    0.91670604394077
H           2.42626991960930   -3.35456750543572    0.13562984953537
O           2.74115798595623    0.05784253369723   -1.95034263807689
H           2.71150151559261    0.76392569496191   -2.59849105161679
H           2.41722182980263    0.45025898628557   -1.09793207662190
O           1.54441461046341   -1.13918013675814    1.95222053631579
H           1.85983110140813   -0.40130875524076    1.40014069016287
H           0.71006061695551   -0.79348333391852    2.29698824782981
O           0.81213681301122   -1.59231488018545   -1.79859918653874
H           0.15564804104717   -0.89913628182626   -1.29665264324405
H           1.63842342604196   -1.02064836160306   -1.99434443520262
H           1.08245236509397   -2.26048800509350   -1.05612671071809
O          -2.32850276029266    2.57103576762427    1.34460238860461
H          -1.09878842468503    2.63422190927425    0.39038887217980
H          -2.91376784554786    1.95708171314597    0.83555920896641
H          -1.82789169834058    1.99382658131406    1.94099964933145
N          -3.36199057369600    0.57870611668578   -0.13772321525710
H          -3.83603117342993    0.73361717482148   -1.01855483559894
H          -3.82447953822815   -0.19120937184201    0.32929579047368
H          -2.40876130221029    0.28339006541702   -0.34690574515953
