    26
        -50.46318575  Gyration_radius:  2.5086025366 Dipole_moment: 7.445
 S          -0.91330389845107   -1.49467556490340    1.13243078422566
O          -0.69023748061823   -0.56470286297062    2.22823254049798
O          -1.98222824334407   -0.99263081207479    0.25397742730496
O           0.26954842156655   -1.85295697190561    0.40174763564487
O          -1.48197960960443   -2.81780298902155    1.78402110744463
H          -2.15491408317326   -2.48095212882757    2.36602233178273
O           0.30405006288390    0.46817684055468   -2.46492676033480
H          -0.17900844671766   -0.37859182828812   -2.60111563796547
O           2.79084300657031    1.55179945764969    0.84339296908345
H           2.98460682646098    2.37439335900734    0.39132887324587
H           1.89724649219883    1.63550820724658    1.22139570309244
O           0.19448929954589    1.79171371250901    1.73666436409045
H           0.08347798003818    2.28278179930798    2.55282343539244
H          -0.08241463172448    0.85502553369816    1.95310383523387
O          -0.96745709850343   -1.86165595100933   -2.10266798097126
H          -1.49392137543795   -1.62190367053708   -1.32011312812853
H          -0.22975969726825   -2.36401983813876   -1.74177182648688
O           2.20177472141001   -0.46357890410009   -0.93093455486172
H           2.56801657938933    0.17003964137854   -0.28887681261279
H           1.64015804899331   -1.06569216799393   -0.41464018583614
H           1.13470094458579    0.18501851016668   -1.99264750282594
N          -1.19141749542514    1.36056724153512   -0.59611468216087
H          -1.91267728062906    1.99888631503034   -0.91324192796309
H          -0.51703425910663    1.06684983432541   -1.43458844370986
H          -0.65480368481354    1.76194027096593    0.18842433807740
H          -1.61775508882897    0.45646299638803   -0.25192590125929
