    26
        -50.46600657  Gyration_radius:  2.60598353495 Dipole_moment: 3.829
 S           0.48739600863266   -1.32425723169280    1.18535474020633
O           1.85305470393010   -0.94797498486839    0.79466417438778
O          -0.08876029334868   -0.32099628439327    2.07033653840838
O          -0.33554275424678   -1.58751906696895    0.01992929406037
O           0.58923064866014   -2.66542133205034    1.98399108647216
H           1.15993927100943   -2.43109071962719    2.74208226748173
O          -1.72109706955674    0.81995441876709   -2.95250865874179
H          -2.48261812416250    1.15847632830345   -3.42394699373433
O           0.23649012249100    2.05758084911026   -1.64210141134917
H          -0.14587354525617    2.09466910652179   -0.74458697777827
H          -0.50843085167023    1.80261423072041   -2.23073448778591
O           2.09118862007074   -1.10664531736005    3.51254135340330
H           2.54210870758801   -0.92532096806137    2.67675895705156
H           1.30621220160010   -0.54269486184339    3.49073260762641
O          -0.93933544130595    1.79596053760245    0.81646804579895
H          -0.60476996363255    1.00041264463973    1.30239042752623
H          -1.05437918991412    2.47970028234604    1.47837113447749
O          -2.48499056185727   -0.07138573331524   -0.58566462326125
H          -1.85265397140339   -0.77225472229990   -0.34407059525179
H          -2.23092280622049    0.68252445598310   -0.03375368490260
H          -2.07439802750051    0.40718025652514   -2.12260889346181
N           1.27521659311661   -0.32071587497895   -1.63658706054734
H           0.94638466791053    0.71364858956393   -1.68481627307827
H           1.77179444585307   -0.49073412469801   -0.71401619785491
H           0.43844530070085   -0.91486594835066   -1.51425903528865
H           1.82631131851223   -0.59084454958197   -2.44396572386528
