    26
        -50.46318579  Gyration_radius:  2.50861764364 Dipole_moment: 7.446
 S          -0.02335118956220   -2.06282690600653    0.30782101863076
O          -0.88302420283407   -2.05675774216484   -0.86533958368482
O           1.36419282474261   -1.76382834553197   -0.08159446531119
O          -0.47787819165719   -1.23185058091713    1.38680773532589
O          -0.00702894700158   -3.55241115249786    0.83656883560934
H           0.14801734183701   -4.04633241569997    0.03842358311997
O           1.33091239536440    1.94760252621731    0.90768372608596
H           1.78408746505387    1.27274335731092    1.46272515810367
O          -1.23653195959672    0.12114261515156   -2.17244230662153
H          -1.16715454099196   -0.71951958200711   -1.63445499137304
H          -1.66385990551101   -0.13756018476541   -2.99100671177080
O          -2.68151041655341    1.84079772343753   -0.57518437253211
H          -2.22884038499987    1.20649059689468   -1.15927953886958
H          -2.53890760893708    2.71453157905745   -0.94233558197899
O           2.06603650624990   -0.33163205270167    2.10822582759004
H           1.26272030384241   -0.48219780853986    2.61696874979816
H           1.97916514259793   -0.93301385324875    1.34808642146333
O          -1.11664812087076    1.40759891512568    1.64301179748862
H          -1.01427849070993    0.44141470867395    1.66542472328463
H           0.38681681134771    1.90875305353088    1.22447298920034
H          -1.80197246532408    1.58410128852706    0.97441041577181
N           1.31047229872964    0.58398535969557   -1.25230143692730
H           1.31795747039547    1.26211063115362   -0.36679791361766
H           0.40140105937292    0.61942738657124   -1.73904022057891
H           2.07450366579001    0.79827360527989   -1.88362724784681
H           1.41470313919821   -0.39104272255999   -0.85722661035456
