    26
        -50.46600659  Gyration_radius:  2.60584244599 Dipole_moment: 3.829
 S           0.30263810400957   -1.81681459704704   -0.05482537719017
O           0.91731452304020   -1.59089821565638    1.26066618382475
O          -1.14956525323722   -1.75342473502031    0.03886502738940
O           0.84402264210495   -0.90771574344791   -1.04728121843335
O           0.69077974598901   -3.26450925223735   -0.50250633644120
H           0.31421831936510   -3.82527333308406    0.20398738695593
O           0.58987081307228    3.12785305578249   -1.48893597009166
H           0.33645853480940    3.86094184732575   -2.05020187282312
O          -0.15592502115329    2.45211398635549    0.97457002194336
H           0.04831784323254    2.90951405808203    0.12876337175397
H          -0.91816458347672    1.87486972410184    0.77710566796434
O          -0.60102458125813   -3.81085507506986    1.74577986855706
H           0.01411316810301   -3.16313180123132    2.11558189093233
H          -1.29194722655278   -3.27762922423535    1.32985944817876
O          -2.07091283376374    0.67885071251187    0.14872787071777
H          -1.72741257101710   -0.24972301947141    0.12232431511177
H          -2.97458447678126    0.61651160345560    0.46238282181241
O          -0.68531797394139    0.94998717098011   -2.27023225263409
H          -1.40019206993993    0.93254921111000   -1.61743364782972
H           0.16834989564109    2.32190459807891   -1.88470383652805
H          -0.11417791164288    0.19997173188106   -2.02388215143053
N           1.80711687236287    0.77060082252838    0.74183690293847
H           1.73565100322910    0.50110526641020   -0.25325788192800
H           1.54886184705002   -0.14577661361796    1.21134742053904
H           2.73455360547568    1.09919201311599    0.98758445284917
H           1.03695759527490    1.50978581840014    0.94387788385710
