    26
        -50.46796618  Gyration_radius:  2.39138140959 Dipole_moment: 2.384
 S          -0.15092655559470    1.71425339402966   -0.59648273790940
O          -0.48564640790494    1.88484933049457    0.82075286419475
O           1.25576629009781    1.92637183087622   -0.85545466159927
O          -0.67463295905160    0.47114901495135   -1.11221602580572
O          -0.92794771461994    2.86254651071472   -1.36600366292407
H          -0.43293501624537    3.64544927156022   -1.14654042708838
O           1.27945309377597   -1.35913542099403    1.12140488155685
H           1.65695512758086   -0.59092501559677    1.59906002936154
O          -2.80072396509557   -1.28281264233518   -0.48112225123849
H          -2.63522565993734   -0.47289717801907   -0.97927383626618
H          -2.19893541573365   -1.93429906461921   -0.89105897625111
O          -0.46150902890748   -2.24743994619922   -1.40635565834950
H           0.21149356835916   -2.56614845298515   -0.80011299881009
H          -0.38621427287207   -1.27714813320204   -1.41542152422058
O           1.91010105155526    1.15639576837925    1.82269411430243
H           2.50237032219694    1.43964862173784    1.12034904141562
H           1.04936545530453    1.54573409040577    1.58700599163626
O           2.06434404693526   -0.55509309293754   -1.31923708799173
H           1.84481569074358    0.39285015000301   -1.21031121058946
H           1.59840393411351   -1.21913552444210    0.20467725955510
H           1.69102423620596   -0.82434199839907   -2.16081375996084
N          -1.19940947448319   -0.55405947095590    1.51464345542059
H          -1.90598464479241   -0.90742178068101    0.80717639626200
H          -1.51662048437845   -0.69806876276068    2.46762684086781
H          -0.25057836674142   -1.01795623377904    1.35450533870135
H          -1.03680284051035    0.46763474475245    1.32050861572869
