    26
        -50.46843459  Gyration_radius:  2.53673224792 Dipole_moment: 4.843
 S          -0.52691168327256   -0.50502118405880   -0.56970822054086
O           0.53494534967879   -1.50041045009711   -0.42935147877434
O          -0.83239364539053   -0.29328230245015   -2.05517130676227
O          -1.74586882367399   -0.92808837274143    0.08780557961029
O          -0.07346094886208    0.79376200120064   -0.02271986618920
O          -0.05530699418650   -2.27922133556015    1.98762736409099
H          -0.96587962025066   -2.56435225740292    1.86825979438757
H           0.27101849040268   -2.11896583595124    1.06984012284149
O           2.86556509739619   -0.80096583117356   -1.42899548336177
H           2.04119008585925   -1.07794317270274   -0.97073537503203
H           3.25768306667849   -1.60457119011484   -1.77489298395357
O           0.70125700345222    2.80701277477226   -1.59768011001986
H           0.45479637079078    2.12858048494108   -0.93625362765733
H          -0.12027950290769    3.19760114015234   -1.90022484645570
O           1.29609853862338    0.62408574672566   -3.06157153015757
H           1.26144284919495    1.53039660550739   -2.69160455759690
H           2.00737359369006    0.16437920296625   -2.56243467117723
H           0.02436951524552    0.04358357483735   -2.52004935384258
O          -2.89318182732417    0.28191695255899    2.11556661629114
H          -2.59283068681761   -0.22928490050339    1.32575911935694
H          -1.29320017934874    0.44223556749756    2.63589877791224
H          -3.47723526914901    0.96326377472180    1.78002186164918
N          -0.26782157484304    0.29392645133783    2.49621404210546
H          -0.10239700865730   -0.75729674363134    2.47876146407798
H           0.30455954674883    0.77274778074673    3.18260000472075
H          -0.07353174307217    0.61591149843611    1.49303867439799
