    26
        -50.46600692  Gyration_radius:  2.60596298515 Dipole_moment: 3.836
 S           0.64368365621515    1.52116983816102    0.81575448516008
O           0.38945572653796    0.77212238152690    2.05392851432835
O           1.83008032623225    1.01123568357980    0.14151500997638
O          -0.52905956007312    1.53315918993070   -0.03813251459243
O           0.92556840187459    3.00483085570215    1.22349171942012
H           1.71046437599597    2.93240538562078    1.80149096477896
O          -2.45683114967328   -1.40875152183974   -2.08356749347844
H          -2.76371754369355   -1.73156472066517   -2.93109025011985
O          -0.83269877981333   -2.49334999620050   -0.27641596668040
H          -1.46120976430466   -2.30806745563962   -1.00942591745486
H           0.02809577373403   -2.14948936271768   -0.58304103421869
O           2.88233041633833    1.79002845888735    2.53384457820801
H           3.05937230915437    1.41807740866077    1.65896318971969
H           2.15933634501941    1.25181754133012    2.88320526011585
O           1.40130487649560   -1.19223260959318   -1.17644924659024
H           2.26082298587892   -1.57651914553370   -1.35648551148472
H           1.57607911355160   -0.36212094213480   -0.66516508369589
O          -0.53552414328013    0.36295442957878   -2.47065515374282
H          -1.81697299579085   -0.67792461416329   -2.28452424769730
H          -0.56275266745290    0.96285436325097   -1.70334083124772
H           0.23950319591094   -0.19539189144112   -2.31239632357426
N          -1.66534263212338   -0.51052270440431    1.17575824607167
H          -2.52384846645182   -0.64375633131301    1.69895907459426
H          -1.74444647752642    0.24442200905849    0.47427628652179
H          -0.86577789333595   -0.14227793328122    1.76873662715847
H          -1.34791543942030   -1.41310829635773    0.66076560852192
