    26
        -50.47361571  Gyration_radius:  2.43360522975 Dipole_moment: 3.318
 S           0.40665457389159   -1.28354281579251   -0.70719873746331
O          -0.68704364136673   -0.47736657879940   -1.27388277403096
O           1.67247425887656   -0.59020397657497   -0.85483367200371
O           0.12275570738430   -1.65026673949426    0.66690769681073
O           0.47212945019215   -2.61636944945428   -1.51689473937634
H           0.64126225680487   -2.32199394567344   -2.43136998816847
O           0.03715958018823    2.29716587840686    1.31118255285309
H           0.43191441533722    2.41214034215036    0.41992014118692
O           0.96052115826484    1.94938727037428   -1.18083340385995
H           0.23348165033378    1.83581417907784   -1.79659563460325
H           1.33469306718138    1.05295939264950   -1.04838045184720
O          -1.75015891983374   -1.23807635891729    2.49819182844240
H          -1.11284589109394   -1.62487290649118    1.86404142658000
H          -1.23892029007281   -1.03834294265399    3.28605366466413
O           0.79537089613781   -0.87131353657646   -3.48897711457941
H           0.06650323097861   -0.52521222438328   -2.95056200314926
H           1.60090859802376   -0.51776606432650   -3.09601107419257
O           1.55584490556233    0.18929798728409    1.97778973756921
H           1.06785283592334   -0.55232810294777    1.57176806856266
H           2.35310459955057    0.26975393873772    1.44809182480551
H           0.62384893126710    1.64046317336862    1.74759535899195
N          -1.94893401160579    0.74228475685463    0.70926797203220
H          -2.04003843591805    0.03264974766393    1.47812430497347
H          -1.55066746336253    0.24072279762014   -0.12786408886159
H          -2.84192324938187    1.16880629222770    0.48847881724096
H          -1.20594820324746    1.47620988566724    1.00599028741379
