    26
        -50.46837083  Gyration_radius:  2.48015772749 Dipole_moment: 2.825
 S          -0.39108404128078   -2.17829017238314    0.40504299672160
O           0.70835448652271   -1.66059377286404   -0.41105747326005
O          -0.51925195495082   -1.44697899919167    1.64443080384718
O          -1.63656722973364   -2.29944469220264   -0.32403980550489
O           0.04537526966017   -3.66186304277724    0.77068009254171
H          -0.78782681833573   -4.04362266297992    1.02454403187769
O           1.25301126507277    2.05386536986348   -1.33320835732921
H           1.63838858948586    2.60239324134801   -2.01659260982404
O          -2.29774134646574    0.15353959566385   -0.82307201944593
H          -2.08277350195881   -0.78570427364767   -0.59394743364171
H          -3.25416769892456    0.20394928391692   -0.86662352246652
O          -0.93333445560439    2.16966923783978    0.50297155745416
H          -1.48037073238526    1.47703427711241    0.09481098708672
H          -0.22303918873471    2.34814971176896   -0.12806754804299
O           0.31794110084509    0.92406632829770    2.50181359223357
H          -0.10103505211830    0.04377299888333    2.42727939694376
H          -0.24498607358754    1.51272085701056    1.94721184941898
O          -0.02494165590524    0.04092592324596   -2.36218725801686
H           0.76951872739533    1.31108079769980   -1.80428690809338
H           0.28471918327723   -0.70239556444131   -1.80956706550371
H          -0.94588601047345    0.17409298462025   -2.08631193721698
N           2.01648596290492    0.35622202786889    0.64812348295485
H           1.92827595513793    1.09652348880721   -0.07428211591089
H           2.98442616711671    0.18719401136713    0.89519694483914
H           1.41076742620238    0.64275847313767    1.51234301268096
H           1.56574160683800   -0.51906542796451    0.25879530565714
