    26
        -50.46843434  Gyration_radius:  2.53606937863 Dipole_moment: 4.835
 S          -0.76078077036204    0.47092729623075   -0.24347698663081
O          -0.67352870748831    1.02323667520949    1.10760601530278
O          -0.45466097199171    1.46735535891578   -1.24872088858084
O           0.15385039366753   -0.68595658047980   -0.37299362241632
O          -2.18224497795723   -0.04087689850826   -0.49287537825081
O           1.33775247737647    2.62654833508099    0.68256900741547
H           0.99135112177609    3.16298974741457   -0.03644683559581
H           0.55968366535092    2.10318822424202    0.99104978038136
O          -0.72942591632437   -3.20659589785970   -0.33443070930594
H          -1.07536133725934   -3.34735158768348   -1.21737480889547
H          -0.30431159835886   -2.32472659920448   -0.34411285399193
O          -1.03061242158674   -0.71637677248655    3.04807966072492
H          -0.81179964034681   -0.04412966678367    2.36495959842547
H          -1.48017521768021   -0.24247266204334    3.74996313011920
O          -2.53652996381257   -1.90099729981625    1.18034323860089
H          -1.97471309959337   -2.58774325514591    0.76548940564261
H          -2.03918425182254   -1.59929083200272    1.97283361048627
H          -2.39005669332776   -0.77800308455332    0.19776995248401
O           1.56619235742577    1.38195828887830   -2.92343095939816
H           0.74362304338730    1.50225438750983   -2.39039774468468
H           2.38854080121051    0.82604599025346   -1.55525859287094
H           1.30501363795705    0.88379241750857   -3.69908210893473
N           2.40260746851793    0.55694356403486   -0.54512706114868
H           1.55713586529546   -0.08856537289931   -0.41637776252963
H           2.16312530918429    1.42978297900803    0.01504619484086
H           3.27450943679463    0.12806324523776   -0.25560327123153
