    26
        -50.46836910  Gyration_radius:  2.48079968285 Dipole_moment: 2.817
 S          -1.02187425007241    1.83964424180435   -0.79905765411345
O           0.34514024631287    1.84251282033226   -1.26752286842670
O          -1.59095465607072    0.49125541234226   -0.81019101744291
O          -1.19774710822172    2.52334644003733    0.46534078629411
O          -1.88651552317185    2.64763804409660   -1.85905148317168
H          -1.65156722221586    3.54384639945430   -1.64543900979952
O           0.03067210354840   -2.63629923093822    0.78004427552485
H          -0.19909737890688   -3.47957982818396    1.17056597541269
O           2.22211349106268   -0.02300130973280   -1.50211912729861
H           1.72647803318746    0.81989701121249   -1.49872068283465
H           2.40074319891200   -0.20868009858229   -0.55096144067201
O           0.25517949255558    1.18253500080577    2.13561040561172
H           0.54946847967068    1.78020987638494    2.82500706614336
H          -0.26344375074282    1.73442792417121    1.49691346348174
O           2.05522959242487   -0.64397619836870    1.08600177726701
H           1.49516703833562    0.05201381616391    1.47012874542711
H           1.51454903064687   -1.44544292878941    1.08689573964645
O          -1.59281483983578   -0.76897969727277    1.56796595676181
H          -1.79507980510221   -0.30665903361656    0.73188317344357
H          -0.62787622118972   -1.96864526559151    1.13779441615823
H          -1.02655484540379   -0.14695578868261    2.05234533175002
N           0.04288999805657   -1.39206949872446   -1.63707679566233
H           0.05736799876707   -2.05539498145696   -0.83874810563495
H          -0.65565158400734   -0.63194189611187   -1.40255915840164
H           1.01548016609365   -0.89466992577101   -1.69047317405239
H          -0.20130169463310   -1.85503133498203   -2.50457659541185
