    26
        -50.46907336  Gyration_radius:  2.47618868497 Dipole_moment: 2.897
 S           1.11437742840169   -1.88192380764056    0.44508201349612
O           1.38092283443101   -1.81885087130375   -0.98753405040433
O           2.12608357784520   -1.21937932736954    1.23310034411225
O          -0.24195134404230   -1.45357230511967    0.75490346232688
O           1.17395850955106   -3.41711376452210    0.84321579111880
H           2.11171095490094   -3.57358013779600    0.81788141952019
O           0.45732463042709    2.15384733799187   -1.15217439336165
H           0.93759493226050    2.91584684239886   -1.47764451200197
O          -0.62779215165598    0.59480358817913    2.35359248835517
H          -0.85760553027132    0.28227563129326    3.22923569217978
H          -0.47273328121596   -0.20952294952047    1.80274227052709
O          -2.33763292198841   -0.67178996178283   -0.77429219629539
H          -2.43789966195899    0.23426933390130   -0.39630038671201
H          -1.78737116877557   -1.14908847877167   -0.12808993497650
O          -1.99255364671842    1.76849394659182    0.24893116775100
H          -1.62001879742397    1.49451457982959    1.10313192220801
H          -1.24023076698784    2.08613823706298   -0.27005645807372
O           1.64817040118024    1.37256098938427    1.00988406127070
H           1.97997607167464    0.45067990706418    1.04241888304695
H           0.95570538783457    1.84361488965386   -0.33730559919357
H           0.93317018466943    1.38335722887046    1.66512918446532
N          -0.23982361329647   -0.23000978395522   -2.23910003995190
H           0.45025116790510   -0.90807971145840   -1.78948260286936
H          -0.27230195778402   -0.35589986309718   -3.24408936670572
H          -1.19343516360683   -0.42597342736650   -1.77116446105983
H           0.05210390464446    0.73438185748231   -1.98201470877209
