    26
        -50.47001018  Gyration_radius:  2.4633170038 Dipole_moment: 2.609
 S           0.12405976144022    1.32217118112303   -1.77547653444430
O           1.51585235672360    1.23567222011234   -2.14217815307263
O          -0.63741061860612    0.12288880827758   -2.03509000142786
O          -0.08615063558012    1.79441099923700   -0.39961255343299
O          -0.49561276922832    2.48053018996965   -2.67689749991732
H          -0.02016086297886    2.35897240165127   -3.49180724843046
O           0.25949758076501   -2.45673889042083    0.50683128824691
H           0.65338194976356   -3.32928494179325    0.47394320886432
O          -2.07852084280775   -1.61205570699284   -0.65524840187182
H          -1.34731838170485   -2.13194066469872   -0.27496099820473
H          -1.65178944362352   -1.08323493133550   -1.35984992354501
O           1.73389218317224    1.16245632678283    1.38974530608990
H           2.31058402150041    1.90700567380635    1.56483177648950
H           1.08302024380279    1.46860092612911    0.71395233132024
O          -0.01490920737960   -0.63978011746055    2.55438567188875
H           0.71327769225446   -0.03223367468996    2.34285351069287
H           0.12066353883690   -1.41882759167944    1.98350667170220
O           2.01663931177014   -0.81361759211124   -0.52821186051463
H           0.88550597625770   -1.85736782114540    0.01866424071567
H           1.85832412917378   -0.19338974173407   -1.26448886999799
H           2.19880401874397   -0.24215684729469    0.23375597323412
N          -1.85815025132850    0.40840947313680    0.98009875210653
H          -2.11957825226832   -0.42236414610926    0.35139366312314
H          -1.25476145085792    1.04511172349025    0.39620383982241
H          -2.67139797990561    0.89467922681218    1.33833673190108
H          -1.23774206793658    0.03208352693980    1.75531906866425
