    26
        -50.46359175  Gyration_radius:  2.59956431875 Dipole_moment: 2.208
 S          -2.15588912744764    0.41493907460815    0.03125660899002
O          -2.56277149526204    0.65852877887404   -1.32716888783835
O          -2.00081125914083   -0.99892056349577    0.36876510665028
O          -0.98629961600711    1.17332717154472    0.44555937667492
O          -3.36003052617125    0.91836040171284    0.95047517518896
H          -3.81415444714017    1.53241679017709    0.38210371570111
O           2.10957494185599    1.65402583085184   -1.73324808324604
H           2.53291504997325    1.62524759600483   -2.59235336838878
O          -0.05446484516282   -2.24471542897901   -0.83887573546409
H          -0.86459705584927   -1.86634146868500   -0.41763214000275
H          -0.22936367020609   -3.17634645557019   -0.97810312097578
O           3.29809973102977    0.94364709469113    0.52532858576888
H           3.40453596559596    1.75654356498765    1.02201337251614
H           2.95041923793177    1.21603831004615   -0.35840263055211
O          -0.82561829024418   -1.09800850455197    2.76511166132520
H          -1.26801641879119   -0.45378750775669    3.31940841402804
H          -1.35592428967818   -1.14364646676925    1.94155983822422
O          -0.07227161485608    0.18827974399643   -2.24317427854636
H           0.00576494472820   -0.73947385951971   -1.98419634753308
H          -0.98080646562383    0.45767265210880   -2.02283862609509
H           1.24724257600725    1.19624694563570   -1.85122419394938
N           1.02788799183146   -0.41250952751130    0.92714571031081
H           0.29929230945387    0.31283144972455    0.65899323753018
H           0.95981946363112   -1.18090092665263    0.24585474895940
H           1.97980348800046    0.02461396578511    0.91427264294970
H           0.71566344147558   -0.75806867131943    1.84936921775583
