    26
        -50.46359407  Gyration_radius:  2.59966337615 Dipole_moment: 2.158
 S          -1.82328537592886   -1.21978320331923   -0.09068522305954
O          -0.82247832092152   -1.90757074270465   -0.90514358194311
O          -2.01812862385762   -1.79290629453655    1.21474458025606
O          -1.57972740814851    0.21353309173367   -0.08149561996351
O          -3.19791652350401   -1.43218889659676   -0.87403638544044
H          -3.81765804779128   -1.58999071116254   -0.16877171348155
O           0.72164982744310    1.95836701914334    2.41829243125417
H           1.20724075691410    1.95100594688058    3.24430966684214
O           1.63661152126990   -1.75179461073919   -0.05394874572707
H           0.72300807857989   -1.93249400522339   -0.38528824469721
H           2.16603938377431   -2.51649912011401   -0.28384102033661
O          -0.38586907689910   -0.36165714551444   -3.03920457447570
H          -1.24390537633973   -0.06560098894729   -3.34599448597189
H          -0.57174102954771   -1.03231617561813   -2.34852130849475
O           1.61636059826650    3.06753733408977    0.18477875947354
H           1.35382239666875    2.71189537282965    1.06827666983645
H           1.04887452061319    3.82494438395717    0.03286052182884
O           0.25034432148966   -0.66270991261128    2.13347258369463
H          -0.62125924124151   -1.04903614580540    1.93983844462973
H           0.88225832116647   -1.11947141671138    1.56257277660317
H           0.43756321613719    1.02829293443564    2.27341163494429
N           0.83527936198384    0.75382197864703   -0.90689525593091
H           1.43546866163689   -0.00975286675864   -0.56648910372943
H          -0.12169116043380    0.62501611677276   -0.46385794732852
H           1.22204680323544    1.69034511257926   -0.64098827978434
H           0.66709242542429    0.61901293524170   -1.91739658901174
