    26
        -50.46158937  Gyration_radius:  2.59079533611 Dipole_moment: 2.468
 S           1.39254143960556   -1.11473589023682   -1.36286530138234
O           2.80538574568596   -0.92418737855956   -1.16456862267117
O           0.66597062680174   -1.53788214894541   -0.17456075685691
O           0.73194760702839    0.00098690167690   -2.02216796678089
O           1.24679080137016   -2.35618203819125   -2.36461784316698
H           1.99261232149357   -2.25085968673484   -2.94705966575140
O          -0.12441788481494    1.31825790452095    1.68192207254251
H           0.78974318753572    1.33076609615140    1.32795412654006
O          -1.85904369308140    3.24314921981020    0.43252812633576
H          -1.28844155066623    2.81258940345702    1.08438429203116
H          -1.71766656542423    4.18552025994727    0.52716200444061
O          -1.90240896248127   -1.92331380233479   -0.55810003948155
H          -2.02985188249592   -2.48143698076474   -1.32612024514529
H          -0.92893432999275   -1.89912716424165   -0.40458752186276
O           2.33702804185439    0.95281469348535    0.65308543095979
H           2.95823053987093    0.70463988983498    1.34180901981940
H           2.50067747067153    0.32933852295178   -0.08136978793345
O          -0.16920925305180   -1.26639068006267    2.37073267077326
H          -0.18277608194150    0.46455060366208    2.16164720191729
H          -1.00729131241298   -1.72837140993131    2.30163919283809
H           0.29312867622992   -1.44294583631519    1.53128478229867
N          -1.32933082972440    0.72333034139279   -0.61582462796870
H          -0.51690595039933    0.54245486925411   -1.27364342076811
H          -0.89979586610798    0.91822594379053    0.33498792628204
H          -1.87217386082211    1.54684932775959   -0.87226341065160
H          -1.88580844481616   -0.14804095151018   -0.58138766639521
