    26
        -50.46158939  Gyration_radius:  2.59157325456 Dipole_moment: 2.485
 S          -2.19954836384548    0.35915366846999   -0.29696863169426
O          -1.24702019679262   -0.44099002512442   -1.05285355567493
O          -3.10617504458642   -0.40324364009495    0.52069295105887
O          -1.54007091670113    1.44720080370715    0.40834383770255
O          -3.09635311513715    1.05695764768720   -1.42562313352996
H          -3.90122964144335    1.26477322619869   -0.96134472023049
O           1.46019161982719   -1.16142153223140    1.05036499484788
H           0.59187764642469   -1.25552917849502    1.49571202163153
O           3.00054794036715    1.07424805487409    2.00136008657214
H           2.69502612291449    0.16734459808148    1.85941675219115
H           3.33814232986046    1.11074136130346    2.89681046575653
O           0.39062224848785    0.94949461227747   -2.56151091573779
H          -0.27757528295859    0.39286971788205   -2.09718550993000
H          -0.11162052259834    1.56823044301990   -3.09306458392404
O          -1.08125449124782   -1.42273063978756    1.89953324557628
H          -1.33228968480420   -2.34837909714637    1.94392099492114
H          -1.82341694066278   -0.97354449373030    1.44937110009870
O           0.74529317516067   -2.23756809504156   -1.29185426309153
H           1.16253164321426   -1.88745639721878   -2.08179496278587
H           1.37823658760589   -1.71889749906090    0.24721488934528
H          -0.09211211228594   -1.74718077987275   -1.20351596202960
N           1.02702766488804    1.26757524580953    0.05216103632538
H           1.23738197827359    0.28352189276245    0.39003985688195
H           1.10731693669795    1.31243280187000   -0.97822667090539
H           0.00878563398696    1.44866381143868    0.28841898130735
H           1.66568480534014    1.89373350245017    0.54058168532724
