    26
        -50.45906540  Gyration_radius:  2.58538706976 Dipole_moment: 3.272
 S           0.69371480178888    0.52656393015904    1.90133563735066
O          -0.16120262223872    1.51135256186317    1.25358596485762
O           0.27119965738624    0.18556960250603    3.23329771010653
O           0.96861567910915   -0.60323707254294    1.02981147341176
O           2.12116097579338    1.24564869792003    2.06425383399630
H           2.08282423157453    1.58740651756756    2.95169247409267
O          -1.61417785537852   -0.85340604798988   -1.93092236279326
H          -2.55903337874012   -0.88739686727031   -2.08351894210056
O           0.85801176194895   -0.28794477363047   -3.40651045791645
H           0.11983137068177   -0.83422866145184   -3.11605422475062
H           1.58739348973620   -0.46597595980854   -2.80468104875126
O          -2.13376396510981   -0.69564224959687    2.46689726372607
H          -1.28926916961540   -0.30238506674812    2.76094399681019
H          -2.47545941493397   -1.17747634290754    3.22352622444735
O           2.30157714014988    0.38905524614469   -0.97924782992655
H           1.87537498281189   -0.08753866597598   -0.22939434959126
H           3.00133005364499    0.91021085469848   -0.58271847559502
O          -1.17586541109458   -2.04965948726221    0.32414854428396
H          -0.28220355941768   -1.72670448408687    0.53638708382849
H          -1.72751126292162   -1.65286142973958    1.02562930824345
H          -1.44966964326424   -1.38257661968473   -1.09365457550750
N          -0.21447831726488    1.35145116473324   -1.32269113466411
H          -0.82848062180437    0.54973415083983   -1.62100021782774
H           0.77190077113333    1.08117761244416   -1.52380902227439
H          -0.46535390275005    2.20116539828949   -1.81608682251414
H          -0.27646579122962    1.46769797155765   -0.26122006095535
