    26
        -50.46359485  Gyration_radius:  2.59975371222 Dipole_moment: 2.134
 S          -1.79445501579770    1.22848690381249    0.30139023314544
O          -1.69732236550996    1.80932297411424    1.61437685066650
O          -0.99206049934514    1.90766261136144   -0.71527491255816
O          -1.56088586469726   -0.20576974650063    0.26447628658389
O          -3.30642795244117    1.44516207273985   -0.16332923995344
H          -3.74967890041391    1.64164895995484    0.65603194273935
O           1.22466782184391   -1.95144495476762    2.21342332488660
H           1.87895758582599   -1.94255496486559    2.91340967410061
O          -1.04012097030010    0.34674826261899   -2.88213960621513
H          -1.94498872725032    0.04933937039287   -2.98638047393846
H          -1.06700602401033    1.02291695413364   -2.17255901183392
O           1.59230125902195    1.74117455844280   -0.41972916222647
H           0.62907534903659    1.92548278457662   -0.54426771012045
H           2.06196741519142    2.50138036582074   -0.76530750669403
O           1.60468341778894   -3.07671745817215   -0.15492362052761
H           1.01436746267191   -3.83165130380254   -0.17464456328124
H           1.54305387142602   -2.71534212208454    0.76243644721859
O           0.71181428626251    0.67042963381021    2.02369619171990
H           0.91909479127603   -1.02072015100596    2.12906102187537
H           1.20596731818887    1.12115076879506    1.32617677537234
H          -0.17936036839869    1.06056897260005    2.02254762311894
N           0.61455435849921   -0.76382737654849   -1.06320528524157
H           0.23019562490898   -0.63242633586700   -2.01334448269214
H           1.27774994809563   -0.00189208991503   -0.86608291304816
H          -0.22207184529280   -0.62786906983608   -0.42289440387772
H           1.04592804335249   -1.70125960973041   -0.88294347924508
