    26
        -50.46359460  Gyration_radius:  2.59956986172 Dipole_moment: 2.147
 S           0.37455707904781    0.26764067174134    2.14649303094109
O          -0.06889358171083   -1.11485459980953    1.97174474827425
O           1.79595181923797    0.41452802772000    2.31592350414458
O          -0.19438409542262    1.12248659494925    1.11747578452116
O          -0.28265204129827    0.73289466068357    3.52494516857233
H           0.41949092403445    1.22988036643346    3.93298575052944
O           1.42879803912891    1.70840398469800   -2.28970641368142
H           2.19635730961531    1.66564944748730   -2.86171242475267
O          -2.63704989707471   -1.00120078285962    1.24715291035567
H          -1.73751958437198   -1.12981908546054    1.61558842425037
H          -3.05353750441258   -0.34807102160296    1.81107379975061
O           0.69465632906997   -2.28253908649000   -0.23011626991407
H           0.80541889353112   -3.22966310524221   -0.13724719323079
H           0.44722625490033   -1.93947348229418    0.66335611029753
O          -1.04392198269851    1.19348629845453   -3.08966998678854
H          -1.50153068915452    2.03507897648921   -3.05639964873637
H          -0.09769933158970    1.39774125330603   -2.89233361492408
O           2.22333549918303    0.07237437762687   -0.32389116338382
H           1.66846439751288    1.18751745856245   -1.49091862882637
H           2.18542454870856    0.28952346303443    0.62363590500872
H           1.89959279565773   -0.83431454922573   -0.40749608239762
N          -1.11834139253963   -0.29472160365240   -0.86835393097065
H          -0.68094400797169    0.36467350429416   -0.15949629267166
H          -1.24791125043634    0.20541147429335   -1.77964173883195
H          -0.48480181420082   -1.09947857511604   -0.96926854100072
H          -1.99008673675255   -0.61315467797885   -0.41412319649590
