    26
        -50.45906541  Gyration_radius:  2.5854543001 Dipole_moment: 3.272
 S           0.11605396962450   -1.91516423993374    0.83242266895968
O          -0.21149735850325   -0.84710994073572    1.76638388488854
O          -0.79879487899444   -3.02396200948245    0.88312873744948
O           0.39306048984113   -1.40015823621317   -0.49782390782934
O           1.53195179427045   -2.49144807665289    1.32659477699144
H           1.27867630267590   -3.23324059565270    1.86643882686925
O          -1.02253614204485    2.23880842947430   -1.00152976231854
H          -1.84034046897192    2.72960412510179   -0.91480628999195
O           2.51941536805432    0.08477691492607   -0.23028363445035
H           1.76558507498043   -0.51305211327395   -0.44352175536752
H           3.14761566380156   -0.46015943968086    0.24603590121106
O           1.86134254119997    2.73973443077681   -1.20575716713866
H           2.28103916662988    1.88700565983952   -1.35614888294814
H           0.96141607485130    2.66833932489757   -1.54149925476409
O          -2.94037610124997   -1.55317510677641    0.25253995117097
H          -2.17692610508565   -2.07935094714105    0.56008539615254
H          -3.62086509393642   -2.18967752638803    0.02187252672521
O          -1.66544881140257   -0.17145173233956   -1.69879769072102
H          -2.31072749435316   -0.54125817676368   -1.06581097563437
H          -1.27975689206877    1.33005346471416   -1.34219217270757
H          -0.84616585039337   -0.65244181531506   -1.48575237649909
N           0.57028242974463    1.49902526809735    1.02479552386001
H           0.18366307453029    0.57190198864454    1.39237801174328
H           0.70908525617478    2.17673430790835    1.76629905934001
H           1.47287576242169    1.26754101972330    0.55770404278153
H          -0.07862776174442    1.87812501231093    0.28724457217284
