    26
        -50.47361572  Gyration_radius:  2.43367432829 Dipole_moment: 3.317
 S          -0.04916413854143   -0.23719403751639    1.50170595403353
O           1.09692841965234    0.65233473905773    1.50033130801439
O          -1.19873774236955    0.40889127148284    0.84717018703112
O           0.23655407715694   -1.52399936653095    0.89704540640682
O          -0.45522711185771   -0.52351998968071    2.98136494154010
H          -0.65774983061759    0.36077149616854    3.33981624884371
O          -0.64923435511324   -3.03559669241237   -1.09333514292847
H          -0.37541636629867   -2.67532213621031   -0.22554890599769
O           0.55739142532022    2.36563717628452   -0.45833947655501
H          -0.36697172561388    2.54086597287121   -0.27025476152714
H           0.86597357406211    1.78030020583903    0.26500117801584
O          -0.82540730124584    2.10266714232333    2.90910929508809
H           0.10009292869658    2.26550312538209    2.69650525299494
H          -1.22571098001818    1.75958583502929    2.09489648574831
O           0.79718732268946    0.59051637602791   -2.45231882990461
H           1.44838386899023    0.00276457243867   -2.00917481469046
H           0.79173137321310    1.39926950750986   -1.89624860329829
O           2.25147105371644   -0.87050386072915   -0.73625441206331
H           2.75803504089835   -0.23582712229122   -0.22315032465388
H           1.57141398120646   -1.19688929447486   -0.11654203978593
H           0.16156019504503   -3.32698978208141   -1.51731980029073
N          -1.39475017563543   -0.52106286487490   -1.62436538239374
H          -1.22114651984719   -1.55503013284026   -1.56205715363549
H          -2.25399382171466   -0.31688144426581   -2.12246024844037
H          -1.43223862036046   -0.15454277689129   -0.63679035709267
H          -0.53097459139172   -0.05574790962478   -2.08878598441970
