    26
        -50.45718266  Gyration_radius:  2.69469422099 Dipole_moment: 3.800
 S          -2.24201958960165   -0.75854826334594   -0.32394016240966
O          -2.59407414987202   -0.41680785498010    1.03933017106892
O          -2.64227908887393    0.28642319532132   -1.26789469239301
O          -0.84417305602871   -1.11183559821578   -0.47839211483843
O          -3.07638977561238   -2.05002439727885   -0.70266890803229
H          -3.95625529714336   -1.79918898564136   -0.43988484320035
O           1.12667828868366    0.61396419998797   -1.06331406985493
H           0.48294468569807   -0.09861030372998   -1.24073184704367
O           2.75382914597612   -2.02031655779470    1.04939833980810
H           3.10036985985951   -1.67316921815229    0.20292460549599
H           2.33682047938564   -2.85746315963909    0.83828802164096
O           3.44135696000548   -0.85412579104914   -1.32559280759527
H           2.64991895450569   -0.28960133308302   -1.41513486249519
H           4.20166003568213   -0.27200066535543   -1.35586158011318
O          -1.18079655938561    1.63412360540322    1.90256605662300
H          -1.83258521695303    0.91180745966408    1.74910540810950
H          -0.35393951976680    1.16337552325319    2.09183416408277
O           0.82041135625948   -0.18071099853843    1.44498099067474
H           1.25073061438049    0.51859777566351   -0.08760043593223
H           0.11528865351576   -0.66662785977509    0.97626982167218
H           1.55554745956118   -0.82274157333677    1.53312825938941
N          -1.01626684266692    2.18684601133521   -0.64028594688207
H          -1.75482081382796    1.49120970374867   -0.98884045487065
H          -1.18798842771862    3.12454625762140   -0.98543915722601
H          -1.06426691497315    2.12802502803884    0.43397201422753
H          -0.08970122112868    1.81285379984949   -0.94621598991392
