    26
        -50.46907341  Gyration_radius:  2.47619397343 Dipole_moment: 2.899
 S           0.68190984920124   -2.11376467455571    0.22149536406526
O           0.46799700326206   -2.43828568840525   -1.16864002000553
O           1.96283069775059   -1.45786933314177    0.45925103460174
O          -0.41676807046938   -1.37382286093736    0.82522921734048
O           0.73732287478673   -3.49651714115425    0.99854900262492
H           1.31628068597062   -3.99732239965376    0.43418794090545
O           0.69913280052943    2.01023450269970   -1.28290837835811
H           1.05753730305617    2.54567428869340   -1.99148695117340
O          -2.36571262294099   -0.47003225606781   -0.68649106802874
H          -3.12491556658169   -1.04953665681403   -0.61562128157627
H          -1.66014770049427   -0.86499827958414   -0.12026733801804
O          -1.70127386880701    2.05031733271114    0.24971249267635
H          -0.93723223894386    2.23261739840643   -0.31532903580430
H          -2.11702404474778    1.25684188800049   -0.12581759427267
O          -0.53348601575227    0.87041177085796    2.33889219761641
H          -1.09274300550787    1.40591477856312    1.72702316517515
H          -0.63831075741143   -0.04695910140253    2.02964512554406
O          -0.19490442144214   -0.16965956233708   -2.35605074408968
H           0.39341690200594    1.15575610769115   -1.71307938133827
H           0.16841738719383   -1.02136845748821   -2.03415279601281
H          -1.11990226145976   -0.18897308862838   -2.06498758247655
N           1.70957503094789    1.05435621595808    1.04427383750831
H           1.88451433689796    0.02542965910309    0.82330803779915
H           1.45265525048285    1.52892133456303    0.15539997844443
H           0.84719106070751    1.07396948728837    1.69445140950584
H           2.52363940176559    1.47866473563428    1.47341333734669
