    26
        -50.45718266  Gyration_radius:  2.69431153218 Dipole_moment: 3.800
 S           2.23966929133675   -0.82828111659490    0.03758170936107
O           2.23397344821529   -1.27673843266908    1.43116209068598
O           1.89726324927140   -1.90040398952116   -0.87492288401865
O           1.42423069321559    0.35660697750504   -0.14629227218844
O           3.72922654946283   -0.40404680436978   -0.29208384858378
H           4.17571681333363   -1.24472646106832   -0.29857238461277
O          -0.88695404305101    0.84999256993131    1.12657573630156
H           0.06501055603852    0.95199082394361    0.93431970462066
O          -0.61496606821168   -2.64104814089465   -0.57618913716380
H          -1.03307302759195   -1.91320849113717   -1.06254571367641
H           0.34139717137853   -2.54996690896516   -0.79342186621191
O          -1.25644132231541    2.50277732767867   -2.21667377157685
H          -0.39358273630715    2.83825425445263   -2.46603148535310
H          -1.46298299689900    2.91190584734975   -1.35238234573926
O          -1.73038132660835    3.35006977740838    0.33893522304421
H          -2.63455243580204    3.49793096719948    0.61923441952091
H          -1.42330240606736    2.54133720461981    0.79140735245005
O          -0.96093925061195   -0.04059332009513   -1.36698821548377
H          -0.00331113310790    0.02023980166029   -1.18733272105615
H          -1.22312583031390    0.53011483491562    0.25411144268657
H          -1.17950720082356    0.77985284985802   -1.85639116335599
N          -0.28273799098031   -1.67847971026149    1.82422353769179
H          -0.53933024334136   -2.17715433567332    0.90484779328395
H           0.78380386179486   -1.56793882098111    1.79092184269987
H          -0.68150058762879   -0.71301294337220    1.79368380072139
H          -0.58360303433383   -2.19547375090716    2.64282313591625
