    26
        -50.47361561  Gyration_radius:  2.43370264992 Dipole_moment: 3.325
 S           0.29609572487121    0.07373681275255    1.48960226945594
O          -0.41217303339949    1.19477504748540    0.85032844253008
O          -0.55593571646298   -1.09958472514882    1.53721470292573
O           1.56558092761942   -0.17868690567655    0.83558362444397
O           0.62960490102347    0.50589235667407    2.95198271883718
H          -0.24495584045940    0.68483791860197    3.34493695458891
O           2.96739062626501    0.73550752767995   -1.22105003372361
H           2.65045628003857    0.45879960779969   -0.33732626530351
O          -2.36299606274562   -0.63712555259014   -0.35608890488163
H          -1.73938705311450   -0.91820889625534    0.34620075081589
H          -2.56152058195971    0.28296026817363   -0.17011682437427
O          -2.00834399241032    0.79132574652848    2.98376233836568
H          -1.71186622771494    1.19355586457810    2.15242607964100
H          -2.14711970160964   -0.14169073005829    2.78705954018634
O          -0.66373753158244   -0.84419505259561   -2.41854281211406
H          -0.03864170106991   -1.47198867176949   -1.99319839853905
H          -1.44915927388099   -0.85719091817048   -1.83008195200175
O           0.90845662346398   -2.23305851335796   -0.74699473618283
H           3.27249944804329   -0.06871126999243   -1.64772762869933
H           1.23957261899266   -1.53591691404724   -0.14923364245341
H           0.30974745666528   -2.75052853631360   -0.20247036107057
N           0.41008797685358    1.39094226362063   -1.65907018629429
H          -0.04542005478254    0.50738746286549   -2.09519240492021
H           0.15830893357136    2.23739528103101   -2.15728961432956
H           0.08266136834192    1.42833779301089   -0.65783267846393
H           1.45079386544240    1.25143271518237   -1.63688096843761
