    26
        -50.46373168  Gyration_radius:  2.4488209026 Dipole_moment: 3.694
 S          -1.38949890477086   -0.42829911278343    1.34499199135213
O           0.01218083336045   -0.48109040688366    1.72333418993859
O          -2.17066773174654    0.59386366057529    1.97001998808418
O          -1.52998694022014   -0.44385051685004   -0.11597608371492
O          -1.99514399801809   -1.83286434405034    1.82905893322050
H          -2.84555626260920   -1.58997860493616    2.18134731482516
O           2.50299859394721    0.73290065299264   -0.77538791906610
H           3.29977458876936    0.46331320507645   -0.31672151358727
O          -1.41904583420993    2.19840080988029   -0.30454047101280
H          -1.57690474434875    1.23414208940898   -0.31648823626982
H          -2.00659029697394    2.53057804980697    0.37905837169765
O           0.23436566484841    1.25273725743658   -2.58337291772277
H           1.10020413962209    1.53772504559098   -2.27787192651919
H          -0.40814719516077    1.74303680809308   -2.06032447028800
O           0.63850749959437   -2.85544638606432    0.76274775499457
H           0.50916263461663   -2.01589170849359    1.25531466178847
H          -0.14651688500894   -3.37332096676217    0.95186045397840
O           0.97635527721952    1.90612658725381    0.96356297382520
H           0.17960304209886    2.22542862777683    0.49842352956680
H           0.68766336335811    1.10537129106646    1.43727015883877
H           1.97432480201821    1.26501297528386   -0.11071162924983
N           0.69015234922553   -1.17077235650899   -1.30884243220804
H           0.60760615710610   -1.33954511395874   -2.30674382417965
H           0.86209577445705   -2.02502131832483   -0.73871014300705
H           1.43944860837596   -0.44583430256297   -1.13709220551690
H          -0.22638453560564   -0.78672191218815   -0.94420654972632
