    26
        -50.46373095  Gyration_radius:  2.44864051755 Dipole_moment: 3.702
 S          -0.28417641139946   -1.86524500490366    0.60114947223751
O           1.04536389766354   -1.28489444942160    0.67413848996879
O          -0.91010225422827   -2.16311406452469    1.85213493865105
O          -1.14167262303248   -1.07907976845644   -0.29421303764187
O          -0.07597017157089   -3.26392186718612   -0.15633259409522
H          -0.66631385644096   -3.84988900735213    0.30680084776077
O           1.37278690463534    2.34541704191371   -0.10139583443077
H           2.32948497652282    2.39690971706752   -0.09849748854893
O           1.80219833314978   -1.59446868417724   -1.83319288931533
H           1.68641012564349   -1.52279363807678   -0.86084897361133
H           1.43817080720227   -2.45246542734172   -2.06016399184755
O          -1.53065400501176    2.36222341347604   -0.61592812717504
H          -0.77328731696489    2.84613451184348   -0.27473837614928
H          -1.93066633661003    1.92341937540829    0.14188315193140
O          -1.98303536395958    0.50575113152146    1.65713512014609
H          -2.20793944889381   -0.07874797454129    2.38557804490909
H          -1.81044992282354   -0.09426329641561    0.90536133617151
O           0.67157614487078    1.01291633180356    2.01154817925407
H           0.93677969429632    0.13057644445276    1.69538755967267
H           1.12198313011351    1.91371252543497    0.76754184477721
H          -0.30396804157393    0.98780836202477    2.04149413848732
N           0.24939296383135    0.57800569600925   -1.77705213490080
H          -0.41628848712962    0.01471809868072   -1.17692603309074
H           0.70810240632044    1.30490153783500   -1.16233760868889
H           0.94792575209566   -0.11553421165069   -2.11645376585800
H          -0.27565090668285    1.04192322652405   -2.51207225858938
