    26
        -50.46843454  Gyration_radius:  2.53677765277 Dipole_moment: 4.846
 S          -0.22598627770188   -0.88005807724023    0.17900114600583
O          -0.58850891396348   -1.53949301407370    1.51257287087402
O          -1.10637057802936   -1.40855133652952   -0.84215126397824
O          -0.43768746485266    0.57679383766757    0.33490021196415
O           1.17831057726738   -1.14708538996378   -0.12889628048634
O          -0.69095470356638    1.72866753081887    2.73113471096575
H          -1.59843738469389    1.54953304029749    2.98274922206640
H          -0.59334238837411    1.40776898145568    1.81133287668950
O           1.01262240734531   -0.86427858096300   -2.71524611904380
H           1.22909914550556   -1.03455956298371   -1.76727339871787
H           0.34350754899623   -1.52166498147227   -2.92674109039277
O           2.91241912303695   -0.10163645858741    1.55021793216224
H           2.31246810876301   -0.44526577614288    0.85145207198952
H           3.63732777584965   -0.72660555283163    1.60611129881445
O          -2.69537866300992    0.00658393824001   -2.37991428483506
H          -1.36108316370727    1.04347599582289   -2.42416901507690
H          -2.18671738656191   -0.63650208418835   -1.82936471668322
H          -3.53093709470170    0.13406355081771   -1.92888846956365
O           0.86478686507672   -0.41099843667267    3.24432884060623
H           0.01198622957312   -1.13842112278882    2.24897918749960
H           1.70650915134093   -0.23895044963138    2.76651891870523
H           0.40731322070437    0.45407733148356    3.28725714451157
N          -0.38573924369824    1.28920483228326   -2.13938715291456
H           0.25416936365262    0.53148170988438   -2.52561691456130
H          -0.36117982833757    1.14971325869604   -1.07742533646079
H          -0.10819645586385    2.22270680659342   -2.42148239014351
