    26
        -50.47168691  Gyration_radius:  2.49106424398 Dipole_moment: 3.010
 S           0.44549095345585    1.33967363581622   -1.81915712153580
O          -0.77199056496562    2.06556806563678   -1.47332065075744
O           1.25191908012118    1.09602424808826   -0.62551814030531
O           0.21124105183925    0.14483039265843   -2.58928238264646
O           1.28591723158994    2.31706396003891   -2.73686518024447
H           1.27568230561188    3.11416458916735   -2.21827889216092
O           0.68623333860475    1.35493716115939    1.99228551323163
H           1.08446602654221    1.37176216380152    1.10020261985356
O           0.67628264928619   -1.38572008487893    2.23210938548196
H           1.17657458685587   -1.45727550405843    1.36687761914796
H           1.11148519405574   -1.97782905319049    2.84559506743522
O          -0.53242262385987   -2.08265150472432   -1.50358312514440
H          -0.28759809323671   -1.23101831297934   -1.94781671515803
H          -0.86626273176830   -2.65467282907743   -2.19596177575086
O          -1.70840482856953   -1.40560902182520    0.85633882903456
H          -1.38296959144719   -1.72024010663658   -0.00868438827679
H          -0.95917180442481   -1.52284394228157    1.46834207949046
O           1.80756017656463   -1.46620256817880   -0.10977244620823
H           1.15299177272795   -1.92022035096062   -0.66038542667842
H           1.74302594948432   -0.52373097532998   -0.36753701420927
H           0.76779872502443    0.42820808696035    2.28246612007044
N          -1.66355489935700    1.23356681703051    0.82932137267191
H          -0.80849962574944    1.39731787674368    1.44344731359868
H          -2.48206078661633    1.72054435567481    1.17587627550231
H          -1.39476166641958    1.58196839270304   -0.13629191056589
H          -1.81897179536138    0.18238448862565    0.79959297413205
