    26
        -50.46373156  Gyration_radius:  2.44873440327 Dipole_moment: 3.701
 S          -1.52682523199185   -1.22641536393698   -0.29587838307709
O          -2.74361628909216   -0.78093099205340   -0.90144507663253
O          -0.36876275743261   -1.30052425379258   -1.16991978075377
O          -1.19848894717824   -0.49584317914066    0.93405019358267
O          -1.77474190128646   -2.73841756230599    0.18005461657153
H          -2.72318716187511   -2.81807176701767    0.15793772062204
O           2.25422582272693    1.32007437121201   -0.75930669474589
H           2.91377897387792    0.94810210716694   -1.34628294017791
O           1.23905170754011   -2.73532967988916    0.34910911644835
H           0.64027574947881   -3.36657473214035    0.75316135474994
H           0.70602548833959   -2.29647552867427   -0.34906961141379
O          -1.87285762519352    1.84889491478873   -0.10376369761179
H          -2.71542912789135    1.70377722345764   -0.54179490627083
H          -1.70694569083606    1.02149378461444    0.38888038607192
O           0.60966489207583    2.43140031657688    1.41913240635858
H           1.20342003666931    2.61537493157929    0.68575314965873
H          -0.28251256550901    2.49789896879132    1.06363302234970
O          -0.02005125397145    1.22691845279817   -2.00400728454813
H           1.40764795379750    1.36159774171367   -1.29430651881330
H          -0.17292379715855    0.26908669855255   -1.91354897912306
H          -0.69289949490407    1.64471148657632   -1.43313326798166
N           1.39109550831304   -0.22752396261382    1.25430819630505
H           1.78216949784805    0.38523138388317    0.48741213960956
H           1.67815979432847    0.13842599026718    2.15693190482750
H           0.33500641469250   -0.20064750877483    1.18808244832805
H           1.63871999463338   -1.22623387164927    1.09401047566105
