    26
        -50.47168575  Gyration_radius:  2.49118410999 Dipole_moment: 3.022
 S          -0.48967713188860   -2.09709468667228   -0.81343492873884
O           0.14323757477729   -0.96349616675759   -1.48293112528733
O           0.37635354521486   -2.61711875342300    0.23958958391501
O          -1.83104892947025   -1.80816562267778   -0.37391708175530
O          -0.59934008655539   -3.25252805082267   -1.88926793683371
H           0.31373169276917   -3.49841531955624   -1.98999187982799
O           2.30493907620344    0.50630418888583   -0.84360338971129
H           1.61871126191620   -0.03064182451590   -1.28561306723835
O          -2.44759818462038    0.37595189400926    0.86814597866009
H          -3.30645854037135    0.25437838704736    1.27514429068824
H          -2.22939306568058   -0.48566056871709    0.42922228731005
O          -0.13621483794387    1.25474207852612    2.00576972689633
H          -1.01719397174640    0.95974962215594    1.70568803505424
H           0.16136892688906    1.89375133450020    1.33292713155024
O           0.65150068185671    2.62306720298049   -0.24971337445911
H           0.66467887295133    3.54216790914987   -0.51708133659220
H          -0.08481657337481    2.18719683473630   -0.77127223764828
O          -1.24332517519010    1.32015240343371   -1.46709363623933
H          -0.79718165879797    0.46088346375877   -1.61389286468895
H          -1.88671418639757    1.14946126247876   -0.76378416943915
H           1.89098670140271    1.37895444920528   -0.71387303031327
N           1.60372359666008   -0.63923142445371    1.41127483985712
H           1.09907695645487   -1.48805507826090    1.02306942077732
H           2.07929933748092   -0.17925224960028    0.57614459077074
H           0.89413645065075    0.06122434678409    1.77986386868552
H           2.26721764680520   -0.90832563218177    2.12863028460897
