    26
        -50.47168695  Gyration_radius:  2.49104516313 Dipole_moment: 3.015
 S           0.26719265143281    2.00026356648108    1.10929701040179
O          -1.14841701144976    1.90227641931092    1.44861505890663
O           0.93488438063526    0.71908259787777    1.32695241455594
O           0.51459534688595    2.54427966256517   -0.20162418165366
O           0.89249567812088    3.01474791137717    2.15029810925471
H           0.56977512617325    2.66085925004188    2.97194084912626
O          -0.04244888058487   -1.74347024741774    1.79780697966787
H           0.45239409099915   -0.90096620459292    1.80170762147490
O          -1.30296873253693   -0.96499916988068   -1.72942488287619
H          -0.64722497534062   -1.64867756744803   -1.50093586385958
H          -0.77933585204446   -0.20677053403374   -2.05238677985455
O           0.74568016964166   -2.50607141580318   -0.72539792443281
H           1.24869211540751   -3.25646004155240   -1.04213805187399
H           1.36048334016059   -1.71591060508847   -0.76598112766831
O           0.34070844479317    1.11341970299646   -2.34986976133652
H           0.37503958749005    1.69166529930501   -1.54539146369948
H           0.29299733983544    1.70785557151539   -3.09981566006588
O           2.16507054372466   -0.32644156719033   -0.80196084374640
H           1.85417721276372    0.11273304123592    0.01618875616790
H           0.27456691518352   -2.21277756584351    1.00479192114381
H           1.76313039538916    0.17864805210193   -1.52374475182228
N          -2.05872629020618   -0.43504447456297    0.74337171504528
H          -1.38843846110605   -1.07498259952821    1.26877981701675
H          -1.77605542676870    0.55385586143978    1.00471937494641
H          -1.88174342007023   -0.59512464560546   -0.29260636341324
H          -3.02652427851432   -0.61199029771264    0.98680802859039
