    26
        -50.45914439  Gyration_radius:  2.44230139211 Dipole_moment: 7.062
 S           1.15785941252876    0.73792327710347    1.46864047329898
O           1.40268227490915   -0.68462147714068    1.20774596390156
O           1.57148694540344    1.58928551050989    0.38608008779943
O          -0.21260326500374    0.94856552992791    1.91393510619008
O           2.06515260431832    1.11286353304993    2.71262800216927
H           2.90778419796037    1.33056889644627    2.32589303757182
O          -1.62982982108741   -1.69186985808905   -1.00504867469442
H          -2.38836889162171   -2.08088265012566   -1.44134296841111
O           1.22737115056173    0.72979550142429   -2.20955880650560
H           1.41979100188103   -0.22073445228976   -2.10685117016835
H           1.45794794544223    1.13072157898771   -1.35592223880448
O          -1.09474036984341    2.56646635363676   -0.04453565314301
H          -0.86439088352860    2.06784854933998    0.75737360575741
H          -0.25723879669614    2.91675078414911   -0.36192277311649
O           1.25508277477087   -1.84530354949943   -1.28669463448390
H           0.29853254735104   -1.97768137817457   -1.30911258728115
H           1.46445411061315   -1.50025191581659   -0.40468880718842
O          -1.40789048850919    0.65807765695172   -1.92827609726235
H          -0.46380835925002    0.71635332722055   -2.21795311052429
H          -1.55688669199533   -0.73842304965634   -1.37955612793228
H          -1.49654793353996    1.37505131915540   -1.26687977014978
N          -1.00905452245950   -1.46389016196210    1.52764120762238
H          -1.39931206659319   -1.61382845019584    0.54942055114804
H           0.05013792825135   -1.47122766465828    1.44700778840953
H          -1.12724063319609   -0.46598154131341    1.81626133400999
H          -1.37037016067193   -2.12557561897873    2.20571626178703
