    26
        -50.47126072  Gyration_radius:  2.42913880579 Dipole_moment: 4.304
 S          -0.18807795509921   -1.89549123423022   -0.16826412876206
O           0.91349231930738   -2.47979799877582    0.58248509683917
O          -1.10741370497350   -1.18343278027928    0.71334270927935
O           0.24834600030840   -1.07995676371711   -1.27907845023181
O          -0.99622792616723   -3.10556636536058   -0.78126679247288
H          -1.05503712517365   -3.70055532510428   -0.04136414122983
O           0.20011858818753    2.45910185077691   -0.38255148636154
H           0.06740015757410    3.38741433596150   -0.57622016670942
O          -3.25396791136815    0.11046514046305   -0.17584428599981
H          -2.53441069580482   -0.45983816957627    0.16418004602069
H          -3.57895091661909    0.60716749803535    0.57699023770867
O           2.23344714881483    0.75359789218668   -1.08994874580006
H           1.64811267381353    1.51599547342843   -0.92135649751331
H           1.63473536649426    0.06018757522906   -1.42255076025536
O           0.02418495322210    0.93377574707047    1.88495926258022
H          -0.51188841905438    0.18419078871702    1.55339671325655
H           0.01898799078301    1.59609065257011    1.16818606104258
O          -1.33805337529874    1.01436180552643   -1.88199704777075
H          -0.43015689032806    1.95433039385534   -0.98170464387852
H          -0.80831655728422    0.19652014195124   -1.84154652249117
H          -2.16907731064076    0.79658975034141   -1.41944937868954
N           2.23155152725573   -0.33594542805368    1.28828141005043
H           1.44041763068921    0.23289760119822    1.72319665091283
H           2.44368658938269    0.12566232203177    0.34879749338187
H           3.04624922029990   -0.40184623486532    1.88767314127888
H           1.82084861172657   -1.28591864948633    1.07165420581379
