    26
        -50.47126115  Gyration_radius:  2.42923611188 Dipole_moment: 4.307
 S          -0.28213946031456   -1.75571109164391    0.70248897508866
O           0.90911755288621   -1.51482492301823   -0.10502319053549
O           0.02141043703378   -1.67674203966364    2.12379950450480
O          -1.39011388407126   -0.91504572860537    0.30854744679344
O          -0.72120742370360   -3.24728798949403    0.42737706840045
H          -0.06863970035172   -3.73942871302303    0.91408403613210
O          -0.18690843395090    2.21341439940637   -1.14176035384152
H          -0.23802667812631    2.94397422053203   -1.75864922839345
O           0.87331203252906   -1.49470475973853   -2.76414476015042
H           0.91152990146808   -1.61778006761279   -1.79357964572056
H           1.73525047040809   -1.16625786510748   -3.02545373358341
O           1.86176386416907    0.96479770800533    0.17831544716149
H           1.64621927908484    0.02738593894284   -0.00603362685513
H           1.25060205246850    1.48708618906491   -0.37500886325050
O          -1.66179072017861    1.65902068138837    1.10790765909637
H          -1.85354328522504    0.74018935908619    0.84534456097729
H          -1.24421226482249    2.05260728999601    0.31866925384672
O          -1.25437551682373    0.09850549513181   -2.18559890828384
H          -0.60214784024100    1.42425095544320   -1.60624218992752
H          -0.57630653111962   -0.46019038802889   -2.60979573194989
H          -1.46280675980234   -0.35499630107114   -1.34774623373667
N           0.47824920157369    0.88248022113729    2.39627013902045
H           1.19367665337893    1.02720556127862    1.61783172949991
H           0.78000778678611    1.26362788343495    3.28567878585884
H          -0.43105451374076    1.31880495481861    2.04480520553949
H           0.31213378051786   -0.16038104067402    2.44791665429772
