    26
        -50.46282834  Gyration_radius:  2.50891955298 Dipole_moment: 5.059
 S          -0.65102214169178   -1.11852514491461   -1.67864439056222
O          -0.13189479541205    0.22031905602572   -1.45584546978175
O           0.32395924465874   -2.16585361435120   -1.48310548665370
O          -1.86863174194599   -1.34054934683764   -0.89899906872776
O          -1.07166904454717   -1.18502616909102   -3.20411260478643
H          -1.01771847502535   -2.12226831903331   -3.35545460625007
O           1.01082692499361   -0.23764854984186    2.00864420586490
H           1.47149805521190   -0.47700334665588    2.81345882461043
O           0.40239247362345    2.02044652020555    0.47464687234798
H           0.78469496755381    1.41465908497745    1.12710059541186
H           0.19744535427041    1.45668243328522   -0.29548124069964
O           2.49071048722294    0.81693469633233   -1.55828353921494
H           2.46723600012412    1.67324483681118   -1.12341306933466
H           1.55827920632863    0.58808386740183   -1.73376564916210
O          -2.11513262706207    2.18055365963857    1.20729923045158
H          -2.60620713595167    2.40437295907552    0.41479679790374
H          -1.15770047364021    2.32410999656429    0.98284659065949
O           2.28689707788679   -1.33236415606023    0.08727865612747
H           2.61924894409859   -0.60494945021007   -0.47583584901142
H           1.52427370827629   -0.68847741880411    1.25415432363548
H           1.61796814474914   -1.77794591320991   -0.47412602387480
N          -1.63417971704180   -0.42045277780351    1.49390645259047
H          -1.74467413491036   -0.83316367073559    0.50529905645850
H          -0.62090505620991   -0.43499055989753    1.75467611361198
H          -1.94729055261772    0.58936210383171    1.45457430235363
H          -2.18840468293284   -0.94955079669800    2.15838495602865
