    26
        -50.46282844  Gyration_radius:  2.50893099509 Dipole_moment: 5.055
 S           0.63094128367216    1.87595931315477   -0.75809303533034
O          -0.41614634057296    1.94010854191256   -1.75071814942642
O           0.19353763515913    1.36350223859008    0.52936439477136
O           1.80550340520768    1.14679294549463   -1.23605062520344
O           1.09589294522572    3.36919860423996   -0.50829162297718
H           0.98750174009877    3.73047548325001   -1.38126594845962
O          -1.08865957633825   -1.88541765499988   -0.60968306752696
H          -1.58961249721945   -2.60747567413752   -0.99036865101422
O           2.21138633594644   -1.70503180159377    1.70078224903846
H           2.74138480422651   -0.99287039918753    2.06309570849728
H           1.27292277673127   -1.50275311000276    1.95792598526137
O          -0.28623901364521   -0.91281963506712    1.88659453732153
H          -0.72791978369579   -1.40512994186759    1.17849758713481
H          -0.09322688432023   -0.03911153306325    1.49647142490065
O          -2.37979215283448    1.37761429963965    1.31747992820229
H          -1.45860726241992    1.58241274178442    1.06824859450628
H          -2.31594689517614    0.76134068419091    2.05169005440988
O          -2.37020036438063    0.25479377877832   -1.15403300157766
H          -1.71397262303398    0.89090898545739   -1.50878830648790
H          -1.60542398938605   -1.04006267591024   -0.84277694113819
H          -2.63632630451668    0.64512519717400   -0.29759754029455
N           1.55430895732283   -1.38715374271426   -0.85789423820371
H           2.05126076536879   -1.92481457625368   -1.55977080517496
H           1.93322927619482   -1.58181313023285    0.11050462392382
H           1.66987661224645   -0.33302407775998   -1.04626172358817
H           0.53432715016491   -1.62075486089567   -0.85906145156197
