    26
        -50.45920699  Gyration_radius:  2.51530200416 Dipole_moment: 7.276
 S          -0.07400603592991   -1.99902783807638   -0.59564239200563
O           0.78778027474635   -1.74318349858487    0.56274904596230
O          -1.36521994459575   -2.52728309619254   -0.27284110712754
O          -0.07545540567018   -0.84772058510087   -1.49060527117526
O           0.68680194075668   -3.14430683782691   -1.41484964900741
H           0.13075863047562   -3.90900430539420   -1.30273182218500
O          -0.35632103980622    2.38100090187366    0.55944524796450
H          -0.85747585407934    3.04684220367272    1.03278696402216
O           2.27339609002632    2.24461565819521    0.55863922932618
H           2.44921668002653    2.13098758857795    1.49522405921207
H           1.30451749901030    2.43674117934581    0.48846689795121
O          -2.04909347100114    1.04066295612056   -1.28065961242345
H          -1.43608500488777    0.33718712554610   -1.54489946164041
H          -1.50123626412631    1.68342567973848   -0.80693407928644
O          -2.88362458716009   -0.51021861012597    0.80080686373004
H          -2.55734592018864   -1.35870733364083    0.46205503080574
H          -2.84272865766242    0.09747302269950    0.03501881693244
O          -0.59512545822726    0.18644276914886    1.89963255074543
H          -0.06257931315442   -0.55037294563190    1.55883401495305
H          -0.45434496422475    1.53122922022718    1.09299144817214
H          -1.53012548554005   -0.05840979324299    1.67513502307734
N           2.24644920446999   -0.07704241541766   -0.71465531661069
H           1.39227610808204   -0.12494927258937   -1.32839112821527
H           2.33448543300579    0.87718486516382   -0.25496376687772
H           1.94575620815790   -0.80156427047165   -0.00200333261490
H           3.08932932717900   -0.34200234819219   -1.21260823353809
