    26
        -50.45920656  Gyration_radius:  2.51511368169 Dipole_moment: 7.272
 S           0.29804025402376   -1.34581074535228   -1.56714305320736
O          -0.68548878977575   -1.09896447062134   -2.57808338402731
O           1.33005936058654   -0.31018004059256   -1.45465074478503
O          -0.22925433963105   -1.68125088098680   -0.24977031229511
O           1.09406846285508   -2.65590965203751   -2.02678514214279
H           0.80868946034218   -2.78921282736898   -2.92529569802389
O          -0.80830677287721    1.52373714546852    1.77119946161545
H          -1.32689325753809    2.29031732903516    2.02018303515299
O           1.67980892745192    1.12546206949038    2.53560382533641
H           2.10802179689501    1.90051356641327    2.16557619193800
H           0.70860309972734    1.26653540220877    2.40344502691585
O          -2.50564066134317   -0.46042000186234    0.66107435751984
H          -1.81808980141229   -1.06673885689571    0.34437703349305
H          -2.04268757813226    0.15701588337813    1.24595957177984
O          -2.35104344141567    0.89569688223952   -1.69929363246221
H          -2.66580807890001    0.44724345732490   -0.88863878787800
H          -1.91278598688372    0.19981294532316   -2.21394676826809
O          -0.12058161855303    1.86729215851416   -0.69430647076164
H          -0.98521144695900    1.68915610715670   -1.14746096911447
H          -0.54401889052930    1.67026624475256    0.80941256477553
H           0.48018505415461    1.18828522773767   -1.04167622489664
N           1.93195594116778   -0.97262838189351    0.93994973940220
H           0.99253371873842   -1.43331663266056    0.82340175570892
H           1.88394946469777   -0.17796909002461    1.64414325446619
H           2.65971295480069   -1.64183186604486    1.16619552979802
H           2.02018216874535   -0.58710098262203   -0.04347015996723
