    26
        -50.46282841  Gyration_radius:  2.50878500479 Dipole_moment: 5.055
 S          -0.38072015576724    0.31490452152502    2.06125240645160
O          -1.13209680520524    1.52852711443834    1.84123070086862
O          -0.65963402465408   -0.73505236279666    1.09616553319544
O           1.05760848324286    0.56186921327140    2.15961393827614
O          -0.84205432389284   -0.24160490808528    3.47049760837332
H          -0.99860087529607    0.57416285131397    3.93348958874407
O           0.21634157320491    1.11499127349116   -1.95626345299809
H           0.25142385342485    1.70555293063246   -2.70943956487869
O          -0.02897332056286   -1.60898910058814   -1.37205084022818
H          -0.01873750309228   -0.75214878239166   -1.82435082550551
H          -0.28380051685467   -1.40013058377641   -0.45318298684608
O           2.49178001850794   -1.98283772056564   -0.73510436734382
H           2.48689901372687   -2.55935072320280    0.03102189183875
H           1.56784096337623   -2.00904779004881   -1.10039927258002
O          -2.91334979051558   -0.81852713221937   -0.37286295725434
H          -2.63727971602263   -1.45676181830796   -1.03572498021325
H          -2.22578689510167   -0.84758574151755    0.31922966389179
O          -1.92028888523350    1.68926343141549   -0.68198285146408
H          -0.63361065044375    1.36187779927903   -1.45352525548941
H          -2.48208318201520    0.88900040584767   -0.70523606977628
H          -1.66994604269434    1.77355077452212    0.26218087190090
N           2.16774553122912    0.59517582594954   -0.16290675530911
H           2.97694101452131    1.20615915215521   -0.18607584185913
H           1.45197833908896    0.89367687250988   -0.86544453190254
H           2.43861139693143   -0.40497378294997   -0.37652845023909
H           1.71979251010594    0.60829830010356    0.81639680034364
