    26
        -50.46282834  Gyration_radius:  2.50921876135 Dipole_moment: 5.058
 S          -1.71881962425525   -1.10480816125800    0.56689274776166
O          -1.04655207922963    0.09380448855348    1.03900197585514
O          -2.36808144484864   -0.94795375863968   -0.71358613185703
O          -0.81342329392975   -2.25338842553796    0.59379918757721
O          -2.86961545475029   -1.41089123598564    1.61132819846454
H          -3.46622964760431   -1.91142969130713    1.06558153673828
O           1.22272838194163    0.57521996490725   -1.81379351249248
H           1.62556302460843    0.76681919779894   -2.66129740105067
O          -1.64660454271726    2.56159927260666    0.14751521988998
H          -0.86912767832656    3.02892146970258    0.46386149917997
H          -1.61520733876671    1.68447291670936    0.57439614700589
O           1.24258690618157    1.49690815195265    0.82638466433806
H           0.40158548554263    1.03528557485709    1.00659911913168
H           1.36758905597484    1.41383071532022   -0.13088460824062
O           2.69326636045351   -0.46747846117477    1.79446809014931
H           2.30345939767831   -0.69057008211403    2.64158653684677
H           2.28479150830039    0.39821765871813    1.52729415737260
O          -1.27367518121735    1.04457965042079   -2.07259985761449
H           0.22859243099225    0.75665115287380   -1.93519300773609
H          -1.74579040726553    0.27079571422372   -1.69909346440664
H          -1.48547522887230    1.77053929249766   -1.45230743065599
N           1.52361085146193   -1.63516168970780   -0.29082986595405
H           1.42058578537437   -0.84165594019678   -0.96498787090283
H           1.98303740091509   -2.42658469862284   -0.72813527771544
H           2.07464389870011   -1.28719461567275    0.54249735368829
H           0.54656143365512   -1.92052844093042    0.06150196462037
