    26
        -50.46361288  Gyration_radius:  2.4926245871 Dipole_moment: 6.640
 S           0.33824531005388   -2.32878049737472    0.03914380639271
O           0.69006580070295   -2.38378081662685   -1.35979834054692
O           1.48570726215257   -2.00926074969795    0.88998213496271
O          -0.78701890090409   -1.45895092600026    0.33786184397011
O          -0.11830851540613   -3.79537727575910    0.43590860304330
H           0.46411369611446   -4.31746453509320   -0.10545423632835
O           1.22453857728790    1.82079822106986   -0.69930238276075
H           1.87866729145826    2.33999803314377   -1.16839945163442
O          -2.08748692473279    0.09220084774620   -1.45332566639123
H          -2.07578220877747    0.90410726071418   -0.92710179598345
H          -1.77781863773710   -0.60713074682042   -0.84974644790385
O          -1.34709801705573    2.37890899816375    0.06337939992584
H          -1.63974255435808    3.23497674913878   -0.25112908588524
H          -0.42143710271647    2.26488168502500   -0.22943276751658
O          -1.21153598153573    0.48624611237246    2.11297759539140
H          -1.51451553671953    1.19683688754732    1.52792893175523
H          -1.26442735576265   -0.33130794784906    1.57697169048576
O           0.43251620101185    0.05947666322357   -2.34655269415195
H           0.63773807402459   -0.86103187143948   -2.07782247876218
H          -0.54665458422745    0.11126618477544   -2.26296906755941
H           0.93802220432158    1.08899727601986   -1.35970771049743
N           1.36421763524492    0.44372877576493    1.63804574723563
H           1.47334903056489   -0.59185477141141    1.35876278852731
H           1.46237772791759    1.01945869743017    0.77778387755391
H           0.35894528215354    0.54103656533421    1.98735778670375
H           2.04332223692429    0.70202116060247    2.34463792997399
