    26
        -50.46907304  Gyration_radius:  2.47616997488 Dipole_moment: 2.920
 S           0.29595365016373   -2.20823848215679   -0.13244712440675
O           0.37075975009227   -2.21564103863808   -1.57387964417862
O           1.56687420027767   -1.86929919285960    0.49831613572629
O          -0.79395124932172   -1.39854467596591    0.39241731338713
O          -0.03589052377965   -3.69688125109189    0.30602430116382
H           0.59451723528663   -4.18285683698964   -0.21452771492685
O           1.26374264940355    2.04370960469029   -0.63115316610771
H           1.85202918134207    2.62428629754874   -1.11499270043733
O          -2.18288217723541    0.13105494485658   -1.23016978668609
H          -3.01341467877186   -0.29517576185048   -1.44426687940977
H          -1.69452283164582   -0.49152851102149   -0.63998396429118
O          -1.39605604502065    2.25349303688510    0.36624184736102
H          -0.50305962768724    2.38936513585648    0.01939743234806
H          -1.82373078627734    1.64042576334544   -0.25399409610738
O          -0.93295176013679    0.49806916070874    2.32211729105671
H          -1.24983335171645    1.23683380162774    1.74964956159242
H          -1.09496685503484   -0.30666361459438    1.79817626360114
O           0.33756814754517    0.31988591443522   -2.32545978341093
H           0.48852147581797   -0.63066240075658   -2.13902450364557
H          -0.62260797705906    0.42286098312909   -2.23442895594476
H           0.94540588913738    1.36104713875812   -1.29571857605345
N           1.55256638529522    0.49000713637212    1.57137397433826
H           0.57454347083800    0.55147476423925    2.02585027698453
H           1.62287540724463   -0.49315919004672    1.16338592096390
H           1.58189323795302    1.16368831780059    0.77970783968653
H           2.29661719319818    0.66244896573376    2.23738875742199
