    26
        -50.46361262  Gyration_radius:  2.4926617525 Dipole_moment: 6.643
 S          -1.79372721885044   -1.32861759652461    0.74769507601372
O          -0.94007921325856   -2.20468497828790    1.51440372436912
O          -1.45701308122257    0.08083926422558    0.85886736817003
O          -1.89094183390178   -1.73287958001300   -0.65587147336440
O          -3.24867955014744   -1.48647967444731    1.36042529232121
H          -3.23932432019004   -2.40439414095419    1.60985671122431
O           2.02128798468176   -0.40509803976586   -1.02968691487394
H           2.80507018955316   -0.87116234449908   -1.32290834873174
O          -1.07820704818181    2.04598004305300   -0.90436157949364
H          -1.39764586501015    1.48734235754745   -0.16651492913128
H          -0.21002103659582    2.37154703943328   -0.62266817797269
O           1.62783626429724    2.18513566636913   -0.22797151977484
H           2.44515067724755    2.68372337559976   -0.20017650477344
H           1.84873165997041    1.28554508822569   -0.54021004308329
O           0.66211138977749    1.08116943375458    2.20643896763155
H          -0.20787904049726    0.76349595997860    1.90406676365076
H           0.97725242466426    1.66508260401124    1.50220588061561
O           1.53221365009549   -1.28019722807465    1.30276342943586
H           0.67907313498287   -1.75639029565725    1.38559199520839
H           1.80913043362912   -0.79223433618285   -0.10325169247226
H           1.38555769163701   -0.45345574899631    1.81594117293980
N          -0.45657105791352   -0.18868108079706   -2.12155892685038
H           0.53099851548279   -0.35246069111665   -1.84065705678988
H          -1.07712040333858   -0.87044191947507   -1.56226624826427
H          -0.73617455552368    0.78845221259133   -1.79157525546240
H          -0.59102979138763   -0.31113539999782   -3.11857772054184
