    26
        -50.46361291  Gyration_radius:  2.49266764953 Dipole_moment: 6.641
 S           0.97953673760464   -2.09926476691859    0.41781490576616
O           1.43509629098022   -2.24974401914230   -0.94374631359499
O           1.92297287753968   -1.33974219055687    1.24005660804227
O          -0.36521564386143   -1.56219157810795    0.54152148491537
O           0.92989356061266   -3.56200120246114    1.02964677410189
H           1.67488700034663   -3.96415939408549    0.59593094156742
O           0.70737976530223    1.97925849587346   -0.94266711801711
H           1.22003731281952    2.59369269677854   -1.46912174273790
O          -1.91412144408290   -0.72838205788876   -1.51100326389306
H          -2.17144361421898    0.11844254886736   -1.11991030726639
H          -1.46544211111609   -1.21385771246767   -0.79531213808712
O          -1.96592315448046    1.86703604819368   -0.35477179632142
H          -2.46502641870467    2.54692821321238   -0.80864993145023
H          -1.02681317946603    1.98705563507391   -0.59832864986512
O          -1.45324285920815    0.40916823481691    1.97151303929824
H          -1.90041998175375    0.90931714755737    1.27226742450184
H          -1.23227482355493   -0.45630858841211    1.57071161755920
O           0.57144811543924   -0.15390106170992   -2.31166347987146
H           1.00807339257272   -0.92658592673902   -1.89461364810341
H          -0.38576028284355   -0.37787146073886   -2.26672444520858
H           0.68992609477476    1.10878163203676   -1.48647146768899
N           1.05682831122040    1.05196272541439    1.58663200385173
H           1.47513787345601    0.06415490870762    1.47793242591535
H           1.05169950779790    1.50234051668532    0.64950186925022
H           0.04215568088193    0.90104824769985    1.88597959741792
H           1.58061098194211    1.59482291831189    2.26347559991828
