    26
        -50.46361288  Gyration_radius:  2.4925982238 Dipole_moment: 6.642
 S           0.39153148621984   -2.28843938656893    0.38636216267393
O           0.51248654812908   -2.59159054104992   -1.01979014608809
O           1.65457352638543   -1.83114661304068    0.96827914817667
O          -0.68976110953792   -1.37255578066828    0.70899429761033
O           0.03920003316847   -3.65891399728537    1.10350632883046
H           0.53837434797912   -4.27249320495997    0.57507606533883
O           1.05482937163467    1.66303554785560   -1.19464332120607
H           1.61188491794130    2.08800497655248   -1.84778476563183
O          -2.29648699802306   -0.14965510671972   -1.08812934647616
H          -2.21791128403830    0.74165405647799   -0.71983458198602
H          -1.87846181225535   -0.73481001555754   -0.43082210421662
O          -1.37171880418018    2.36199679403345   -0.13208179049197
H          -1.73018825668857    3.15229797219177   -0.53749447521493
H          -0.50320305866755    2.19274316614514   -0.54758708324605
O          -0.86531753562521    0.85556896570656    2.16460129057237
H          -1.27427272016193    1.45491201117980    1.52227416545655
H          -0.98560972547863   -0.04269586304828    1.79422159291428
O           0.04719343544832   -0.35519188505038   -2.35867968874918
H           0.68218650535475    0.82834835219203   -1.66164028597077
H           0.31279545581030   -1.21622307527662   -1.97185984614267
H          -0.90665984404106   -0.28293704780560   -2.12766288463425
N           1.60059375205541    0.71497127208192    1.29178702747623
H           1.68610144454180   -0.35417953578421    1.18140695128200
H           1.54596306332650    1.13147966394713    0.34066436311629
H           0.66295420805432    0.87794452475990    1.77775674360955
H           2.37892304264853    1.08787471969160    1.82308021299669
