    26
        -50.46214906  Gyration_radius:  2.46077191339 Dipole_moment: 6.826
 S          -1.82128215523732    0.44120763872530   -0.80513955268881
O          -1.57497613236572    1.72652685333427   -0.14667130691455
O          -0.76858245215112    0.17790707424561   -1.78060956321091
O          -2.02143989667748   -0.64662275028077    0.11185239308182
O          -3.16306072808898    0.62251150114117   -1.61733662776063
H          -2.97055837346270    1.40441325025252   -2.12234622380417
O           1.52608229797285    0.00451742585719    1.78503544910961
H           2.15636308114877   -0.18609501728673    2.48032535599644
O           1.20013143425526   -1.34904351017088   -0.67681712453075
H           0.40743501110703   -0.91892210323599   -1.04644911034583
H           1.37770388331884   -0.92617231233176    0.17663804109459
O          -0.57656850862975   -3.05663983208874    0.64585608515592
H           0.17652751510199   -2.75747916645055    0.10998012828468
H          -1.33265313874796   -2.56050135310904    0.30600574573811
O           1.73318191082642    1.01045202194993   -2.17768057261608
H           0.79859687097098    0.78347647864119   -2.34954687742817
H           2.13534063571322    0.15809827733441   -1.96013791747436
O          -0.72005819623335   -1.04151494422839    2.43029078755120
H          -0.59782880127683   -1.95975622309900    2.10805369427104
H           0.63781491096349   -0.37110847550713    2.10032528452151
H          -1.35477577312132   -0.68399224563937    1.78344594951925
N           0.96752034727078    2.04741635579048    0.13832369196675
H           1.23877599077014    2.99517397099600    0.37650472327815
H           1.38735004307249    1.74013847374926   -0.78881801797923
H           1.26096375992866    1.37298131410152    0.87792369569381
H          -0.10200350640292    1.97302727729662    0.04099188947753
