    26
        -50.46907317  Gyration_radius:  2.47621897508 Dipole_moment: 2.917
 S           0.13538682480499    0.10673555683276   -2.22537887962545
O          -1.03126961047859   -0.76398923160271   -2.13295360241468
O          -0.21362055299294    1.50614620285406   -2.28287021117644
O           1.12025122035648   -0.20876742761163   -1.20093929071924
O           0.83869504429537   -0.23587278674859   -3.60615408115983
H           0.23198906213465    0.16212209312235   -4.22103874282638
O          -1.74754527947570    0.34183950757106    1.73271986635236
H          -2.52279289109320    0.69321895621869    2.17175906239617
O           0.95692965244608   -0.12309781877736    2.49608707672474
H           0.00501618238370    0.04154793969344    2.44147484073868
H           1.37130503339994    0.57788061613926    1.96658856089593
O           1.83207315618277    1.62824257809674    0.53683000269377
H           2.67458588347920    2.00546483349688    0.28162769057556
H           1.60269997001465    0.96437056989330   -0.15677312208954
O           1.24393852966645   -2.10407091224363    0.73124642645338
H           1.46055600782003   -1.54630213603341   -0.03700750486997
H           1.28883417968398   -1.49246807562041    1.50440776415607
O          -0.83800361280328    2.21009715354955    0.18894839046048
H           0.08076779397542    2.30576247585140    0.48473647776411
H          -0.75534449024960    2.01273956499257   -0.76776918693796
H          -1.43282221917832    1.06602015015103    1.11182309936652
N          -1.28613000270262   -1.85049612243779    0.20632272639245
H          -1.23414636550992   -1.44861856387516   -0.78048992192051
H          -1.60325249244531   -1.09027444497640    0.84105731028370
H          -1.90657435097377   -2.65094282643081    0.24179659607153
H          -0.27152669282621   -2.10728786210314    0.47394867246509
