    26
        -50.46214912  Gyration_radius:  2.46074477876 Dipole_moment: 6.823
 S           0.54380199476278   -1.83822739894043   -0.69627306911616
O          -0.87772930976840   -1.69278577532282   -0.40092679891209
O           0.88272808277351   -1.06112617976574   -1.89103935463649
O           1.38393105553099   -1.55277638899232    0.43378162076018
O           0.77809881715872   -3.35068147658218   -1.08409440556770
H           0.25900269179904   -3.42196638027068   -1.87714542737774
O           0.39423533533680    2.29526896635478    0.30099596374216
H           0.52568641773439    3.19089180892284    0.61339351650939
O          -2.78957694983209    0.06982702287596   -0.98963538194324
H          -2.32143593533884   -0.78049805008750   -0.87843701537738
H          -2.87348949004801    0.40024528294869   -0.08445743969975
O          -1.27788576530180    0.30300362259195    1.41131853840350
H          -0.73905249042282    1.03650809224975    1.07906794418987
H          -1.05759722847543   -0.47766729163907    0.87098364984731
O           0.88833581554043   -0.43465725469817    3.01954711836579
H          -0.00762749735136   -0.16244936526256    2.76090314378863
H           1.10760357658246   -1.16009724539789    2.42038065551028
O           2.33582720685601    0.85705315303497    1.14791842782455
H           1.20804539947190    1.76985985673681    0.60300297621242
H           2.01737575434254    0.62362883259084    2.04568170690958
H           2.24181138485935    0.01080277090931    0.67453589865155
N          -0.52824534998737    1.09692686646988   -1.91485138434539
H          -0.52610322047249    1.58099571055466   -2.80604227181358
H          -0.14299421972101    1.70004681799314   -1.15604352467067
H          -1.50697218301193    0.78627320662061   -1.63921339758883
H           0.08222611691976    0.21160078602381   -1.96335167968825
