    26
        -50.45880464  Gyration_radius:  2.39828128376 Dipole_moment: 6.389
 S           0.66382883203276   -1.59871034848324    0.26643147455249
O           0.58025653719705   -0.60752022196367   -0.77804890553563
O           2.05071095271499   -1.95634933539233    0.54637782471619
O          -0.06522824525883   -1.24500955502829    1.47123687748060
O          -0.04565490125975   -2.89440845267042   -0.32344783958648
H           0.01001853054333   -3.56065604368885    0.35634196549501
O          -1.19948177570470    2.26782253335140    0.39091499774902
H          -1.68944940078173    2.96997583981014    0.82067608302723
O          -0.83440266124231    1.21110877418426   -2.21665195695949
H          -0.20043032064863    0.58984424177156   -1.82865281595216
H          -1.05894780141428    1.80698811809250   -1.48917973294851
O          -2.22973995337833   -1.09919799508288   -1.59355395314471
H          -1.91319735014047   -0.28922796846391   -2.03829615532167
H          -1.44325248981471   -1.63008885129359   -1.43426860412170
O           0.92107514639891    1.23199436686675    1.63670666814052
H           0.21428101522182    1.72793202145116    1.15490919715277
H           0.53676644898105    0.34338181005765    1.78008158558496
O          -2.38773021400653    0.00512333664622    0.85179317613869
H          -2.55515729095503   -0.40095727195859   -0.02662898162559
H          -1.64391352407102   -0.50305780751632    1.21898031109287
H          -1.72164711306475    1.42506581354645    0.55968344964386
N           2.84707907219304    0.46137340841012    0.12256121001226
H           2.07641754835051    0.91677597120199    0.76801566722772
H           2.59465774230304    0.64189771744284   -0.84713332595181
H           3.78858077118455    0.77470257249891    0.33841407068015
H           2.70456045458881   -0.58880267375468    0.29273772245066
