    26
        -50.46361246  Gyration_radius:  2.49263223607 Dipole_moment: 6.631
 S          -0.25535385665799    1.98968142315595    1.23226755322931
O          -1.13504889477016    0.88430171835847    0.89033877947771
O           0.78984304871785    1.64844264626275    2.16770547998291
O           0.26470475238794    2.63476046951257    0.02567195401047
O          -1.16162825856068    3.06822288212629    1.96184658555886
H          -0.51107122408131    3.52578574113932    2.48356320258023
O           1.76617645860200   -1.09691615076585   -0.99403911150137
H           2.66409706612243   -1.37039146610360   -1.18498465483672
O          -2.04414962564724   -0.12617740175451   -1.40463998746300
H          -1.80596476697606   -1.05892864177956   -1.29333724078002
H          -1.96403684344438    0.26992652843388   -0.51290379057207
O          -0.59921910773688   -2.47879943587480   -0.98562309293954
H           0.28135343804946   -2.05615576876683   -1.02622762918005
H          -0.47417703259378   -3.41100397938954   -1.16622054832090
O          -0.83945697508426   -1.66843656114952    1.72796873999038
H          -0.94800465830191   -2.08423596787291    0.86105999091619
H          -1.08052471974919   -0.73392722997388    1.59433992497968
O           1.66855393826919   -0.76440431820748    1.52090800718709
H           0.85027499374860   -1.25091857269739    1.76997552377394
H           1.74602433821519   -0.92780313511251    0.01802396567092
H           1.48234305861870    0.15673416769277    1.80071517654433
N           0.27515020639652    0.97207047179394   -1.93020066716844
H           0.29594975391037    1.71703980582428   -1.15093678281404
H           0.95859812195732    0.22948242794787   -1.68047525245183
H          -0.70421150702460    0.54616874048345   -1.89217026056114
H           0.47977829563318    1.38548160671677   -2.83262587531522
