    26
        -50.46361280  Gyration_radius:  2.49252237423 Dipole_moment: 6.636
 S           0.62499844068073   -2.15002823296092    0.72609247294753
O          -0.59459064797063   -1.36336247723494    0.80456761158415
O           0.95712339739565   -2.59754163295341   -0.60563377572615
O           1.73762971006268   -1.45382551194998    1.37410525125680
O           0.36120270590826   -3.46240610835160    1.57735204569288
H           0.98482006300213   -4.06162191070860    1.18109824666558
O           0.97966234696742    1.64430895735840   -1.28166086990274
H           1.55718491151936    2.06379624371627   -1.92041898181020
O          -2.10345778506790   -0.59682387287566   -1.30305827489270
H          -2.18484733952352    0.33350761057527   -1.04991985331252
H          -1.70117483169576   -1.03635920547529   -0.53221961803503
O          -1.62982261240908    2.11382689039736   -0.59168691146680
H          -2.03026182596265    2.79515226457011   -1.13276018141335
H          -0.70172201411175    2.02101515228315   -0.88427793203370
O          -1.23178482420237    0.97163688666619    1.92530560378541
H          -1.62844143182398    1.42850091621087    1.16829495784834
H          -1.19023724759415    0.02845592341253    1.66611577311804
O           0.38949257562651   -0.61809383738882   -2.27003305692509
H          -0.58737530448857   -0.65396471895317   -2.15708145808448
H           0.77717321643612    0.71645413747164   -1.67123085588863
H           0.70960551666951   -1.38267353458457   -1.74609681963274
N           1.32213309514138    1.07965814308550    1.35313509982153
H           1.55505016627435    0.02781520151890    1.39434963432847
H           1.33577541538108    1.37092333118071    0.35508102975626
H           0.31773284679974    1.16415291375284    1.70817774744645
H           1.97413141698540    1.61749647123721    1.91240315487281
