    26
        -50.46907296  Gyration_radius:  2.47619950741 Dipole_moment: 2.922
 S           0.52428679047670   -2.10021309780911    0.54417764074671
O           0.75611527023188   -2.50461387882633   -0.82184993523953
O           1.67953009187347   -1.44054565579377    1.14260205281574
O          -0.69038311498401   -1.31850633617869    0.72437748596357
O           0.29417093436947   -3.43382063526743    1.37295427109567
H           1.02362916141174   -3.96303245175097    1.06901761049693
O           1.11728224279293    1.92335530413119   -1.10589695779775
H           1.69374619608140    2.41336692194961   -1.69310520375264
O          -2.03893261905056   -0.49730336314360   -1.37524663726399
H          -2.79587066052195   -1.06688450211502   -1.51622620925636
H          -1.55848398753375   -0.86118144402569   -0.59348469977466
O          -1.64229263898877    2.07115253474537   -0.41732751453616
H          -0.73453447553484    2.21419049716911   -0.72027780539888
H          -1.93780980585800    1.25908503179177   -0.86076501765303
O          -1.22344927115576    1.01330728232288    1.99641915663642
H          -1.54761929779890    1.51407799778695    1.21023423247069
H          -1.24790679079193    0.07947636329985    1.72120111800110
O           0.55447237428150   -0.31095553523191   -2.28545680521058
H           0.94174075210934    1.04646765514766   -1.56333917100695
H           0.77724216384263   -1.14299642867888   -1.81727029555766
H          -0.41533956767022   -0.30787673004960   -2.30121883894689
N           1.31748605169773    1.10493393718454    1.47076453971517
H           1.36619407722204    1.52511588707764    0.52076032917707
H           0.29457033924704    1.16924128514685    1.81201137697481
H           1.52787582990642    0.06341753994529    1.37600951332991
H           1.96427995429543    1.55074180122305    2.11093576392971
