    26
        -50.46361247  Gyration_radius:  2.49254256293 Dipole_moment: 6.632
 S           0.04640803107629   -1.82767041928544   -1.48299502499571
O          -1.15182790974830   -2.41737620765918   -0.93501914954290
O          -0.01921480634410   -0.38500827251274   -1.64681968093556
O           1.24779296642211   -2.21426324950025   -0.74170621370184
O           0.20558971010716   -2.43239055090773   -2.94105054743288
H          -0.14952965153962   -3.30550206089047   -2.81301864959866
O          -0.15317815024113    0.25175966940082    2.28551036180245
H          -0.34779258036058    0.05354638399550    3.20221392868921
O          -2.07576715502987    1.18746061497364   -0.87007429974951
H          -1.54166651687023    1.85368003643119   -0.41500369177613
H          -1.43456745824258    0.62543552069965   -1.34153740380264
O          -0.29453897694923    2.58163929221779    0.85102569112156
H          -0.64754953911559    3.30528520691756    1.36975398988122
H          -0.25749528537345    1.79867016542291    1.43512868773006
O           1.58833006663688    1.63678556196658   -0.98228280236052
H           1.03037157227102    0.99272690329490   -1.46436757685459
H           0.96745074123268    2.20610926135874   -0.50321801878898
O          -2.04563408363393   -0.77806642650204    0.94271422991657
H          -0.90139292860588   -0.20046401095259    1.74796663236662
H          -2.30281757286410   -0.04585786379769    0.33769094481790
H          -1.76723780028418   -1.49336096866451    0.33255065965748
N           2.02584878538163   -0.27688343289973    0.75216550019316
H           2.93402657304048   -0.41434709016836    1.18049236492558
H           1.75190533098576   -1.12650441835745    0.14749664033548
H           1.27976444709208   -0.13691977774873    1.46264712705734
H           2.01272217095880    0.56151610316963    0.08973627104530
