    26
        -50.45880456  Gyration_radius:  2.39810129148 Dipole_moment: 6.382
 S           0.74214476446727   -1.29594516123823   -0.91617155147667
O           1.99084229144744   -1.25506801840995   -1.67035445474053
O           0.87920429092211   -0.63485321466432    0.35840314442639
O          -0.38772418947832   -0.83039987426522   -1.70024250417393
O           0.45151836604249   -2.82113886075121   -0.57108525565867
H           0.36651371966184   -3.27155953416924   -1.40722777651329
O          -1.55256960450285    1.96822074257384    0.66912445977856
H          -2.24775912361259    2.62605817534629    0.62749431070707
O           0.14637803169235    1.76775058132835   -1.37839813107976
H          -0.41835497849379    1.96003262397303   -0.58977932799231
H          -0.14148484804613    0.87901526175931   -1.66992192437545
O          -0.19616567905955    0.41763550477976    2.61978643848055
H           0.34611920024424    0.06601896596957    1.89815968699285
H          -0.72942345295040    1.10746049100689    2.20209323949400
O          -1.39810761871133   -1.92313063762378    1.75215510317787
H          -0.64672600621311   -2.20894471521733    1.22343519501267
H          -1.06259207415598   -1.19649362646455    2.31197428171782
O          -2.51086923188830   -0.32052891014014   -0.09665967439620
H          -1.98271828518276    1.09699827947371    0.40943245886138
H          -1.87242184807577   -0.54467167780426   -0.79565422588165
H          -2.31837134544714   -0.95522813072081    0.62766900183458
N           2.55181715449782    1.09969910009570   -0.77605274376090
H           2.50281315385733    0.11877560792672   -1.20883043974457
H           1.55612229880446    1.51528444075027   -1.00857544889588
H           2.61572467969403    0.97665466735694    0.23255643352001
H           3.31609034448580    1.65835791912127   -1.14333029530638
