    26
        -50.46361288  Gyration_radius:  2.49254897896 Dipole_moment: 6.641
 S          -0.20958392928192   -2.33985186828398    0.14281042118910
O          -0.36064203205896   -2.49587463221112   -1.28438244418738
O           1.19500251321633   -2.30216006441122    0.55349411931006
O          -0.94364522606779   -1.21681704252127    0.70144604447502
O          -0.83201059814736   -3.64409181574391    0.79694116968758
H          -0.59427523355255   -4.30096748006444    0.15125832041792
O           1.30788598147463    1.45604570225380   -1.21483015028134
H           1.87153512456836    1.79269643488776   -1.91229875375795
O          -2.37030460122225    0.58603481872091   -0.71984831974810
H          -2.00030761332293    1.37594459847962   -0.30099079507421
H          -2.04803443525125   -0.16115268638346   -0.18402045450319
O          -0.66969958684312    2.63708240626133    0.26846015960680
H          -0.84594729505441    3.53535394579339   -0.01346247994877
H           0.05594422011131    2.29608140151975   -0.29078005714684
O          -0.30316832438841    0.79318339302933    2.33376969311225
H          -0.61092065763522    1.54961464176862    1.81206352519257
H          -0.71486050602197    0.00760162695264    1.91919351339976
O          -0.36289056188325   -0.07545330531181   -2.35735709407987
H          -0.29680295206528   -1.01504421978241   -2.08459080767776
H          -1.22061225466891    0.21646108874764   -1.97321183636504
H           0.66050955797017    0.80953405810111   -1.68046801104712
N           1.89061226969043    0.11374683867119    1.07372269379668
H           1.66188958086415   -0.92003075881365    0.87014255731922
H           1.82879105225227    0.63781431577738    0.17780164371243
H           1.10699963020713    0.45909661572509    1.71297005099748
H           2.80453587711064    0.20515196683775    1.50216730160101
