    26
        -50.46937899  Gyration_radius:  2.46863282557 Dipole_moment: 3.644
 S           1.16569767673907   -1.68553084966878   -0.40592208017008
O           0.39351780896635   -2.21449825200353    0.70872787169102
O           0.40550554734955   -1.66392007221908   -1.64070217318298
O           1.76945873600691   -0.39985262108909   -0.10269301720679
O           2.37096727118851   -2.69276582637753   -0.61461173750779
H           1.94690945307596   -3.54359004677285   -0.56564709297456
O          -1.86719474407621    0.95702144780376   -0.22938591583371
H          -2.24409863187863    0.13102353098101   -0.58954273695262
O          -2.19746711481106   -1.51307759173244   -1.20132921207136
H          -1.23156717729742   -1.63588189676397   -1.33715993966988
H          -2.62641294572310   -1.92651727778472   -1.95156873531419
O           0.30867477840876    3.14816389834289    0.27867168700052
H          -0.64617936734882    3.08154467747164    0.36272247044664
H           0.52856748415740    2.72089078510911   -0.56014069073288
O           1.49294403563601    1.35954537639796    1.95237747786888
H           1.20294902574734    2.15366731525841    1.45793280644837
H           1.90242220802688    0.78058578792592    1.28676742058939
O           0.40330460527843    1.15994840402477   -1.69429207831084
H           0.99557248359471    0.61556397196869   -1.12589852708483
H           0.26704631119338    0.61582396380001   -2.47403015020262
H          -1.08901721222539    1.12855895652261   -0.80263962211811
N          -0.66890465463762   -0.11733665994890    1.87494848971118
H          -1.22329172334823   -0.28726300802094    2.70648246461510
H          -1.24253292177194    0.34861976770837    1.11168400360467
H           0.17920392143852    0.50348017484176    2.07492013535956
H          -0.29607488369218   -1.02420397578017    1.48032887199589
