    26
        -50.46361295  Gyration_radius:  2.4925888027 Dipole_moment: 6.641
 S          -0.37991230852489   -2.32278318510293    0.01408203008599
O           0.01242610368129   -2.47877791460549   -1.36640223312568
O           0.76406405239594   -2.36411608210540    0.92646849083054
O          -1.20649014044408   -1.15542131421234    0.27146702983383
O          -1.27567355451455   -3.58490688930431    0.36221754697968
H          -0.85061998440454   -4.25683986418530   -0.15990792408346
O           1.75084012173743    1.36952371961170   -0.60388624404326
H           2.55461864208997    1.66893837493919   -1.03025421343937
O          -1.88194168971651    0.71904156277761   -1.55521093438821
H          -1.82992789516581   -0.04229639086486   -0.94948626057638
H          -1.65486803513929    1.48861507337823   -1.01441126931948
O          -0.57135148340586    2.67335073620199    0.03837455503949
H          -0.57600781366855    3.57897567951660   -0.27336979970359
H           0.29166797401263    2.28696617012280   -0.20969349044698
O          -1.12118347621874    0.82391364185807    2.05736659101254
H          -1.16461459705462    1.59374853125975    1.47037592547770
H          -1.38830903649726    0.06111104722308    1.50482717243936
O           0.55588516265965   -0.06938274356043   -2.31983766992503
H           0.45997497513613   -1.00950028937484   -2.05788092657175
H          -0.36538661047482    0.27480824346219   -2.28521316920648
H           1.29362521729816    0.75873747622605   -1.29068011598392
N           1.34463267990692    0.01000208169462    1.71252604928831
H           1.15257521461483   -1.00977769527944    1.42008089507212
H           1.65729528540848    0.53134409078657    0.86898482290682
H           0.39770707426818    0.40432685687122    2.01231015099821
H           2.03097411201640    0.05039908266679    2.45715296085029
