    26
        -50.46843390  Gyration_radius:  2.53510369796 Dipole_moment: 4.824
 S          -0.87922848260120    0.20471434063665   -0.21188528083199
O          -1.59463836356590    0.13519955278947   -1.56387323642696
O          -1.19154823435047   -0.99414903787237    0.56491809246040
O           0.57471266551350    0.26137982537458   -0.48416206091426
O          -1.30981061273104    1.40874320774835    0.46785634268222
O          -0.76445879772924    0.01892717849389    2.92871034066020
H          -1.37429645229035    0.76239648925174    2.91875915960247
H          -0.99607580844337   -0.49535435930339    2.11860887693129
O           1.58869987280159   -0.35738409642844   -2.87668472221741
H           1.42056104566734    0.42082134460120   -3.41074469960486
H           1.32111813693334   -0.12628172327236   -1.96373017428713
O          -0.29818281192888   -3.24581572292805   -0.45961867550346
H          -0.58346375146595   -2.42762387770227    0.00473546561562
H          -0.95050488436335   -3.91383119585680   -0.24166236867799
O           0.26726793323112    3.32740274065664    1.31962666506838
H          -0.43009130134924    2.70574579014410    0.99921305413710
H           1.23965716285710    2.02316756775164    1.78014449454280
H           0.41207459293953    3.94903682768117    0.60506010370422
O          -0.62851622858718   -1.88262052095063   -2.73824387506643
H          -1.26292678536486   -0.70242964073417   -2.06607549271356
H           0.24846637668001   -1.51398240237718   -2.97173606587614
H          -0.45955533042342   -2.51915126821573   -2.00834679656109
N           1.42072475811481    0.99506120081809    1.83512517598353
H           0.65483226839840    0.57391142794600    2.44265050762514
H           2.35361874249528    0.76824115347059    2.16121484063967
H           1.22156431956104    0.62387519828117    0.85014035898774
