    26
        -50.46163601  Gyration_radius:  2.55712399532 Dipole_moment: 2.246
 S          -1.51582632618131    1.47275550205861   -0.98070388599838
O          -1.93380988718546    2.02263935770519    0.29529194746616
O          -0.10619391155443    1.74228453730015   -1.26051303214404
O          -1.81388568872145    0.07200597893510   -1.16744833652048
O          -2.35143786345155    2.26850224363110   -2.07594404729835
H          -2.41199519637473    3.13665685883445   -1.69022145288221
O           0.25385518780896   -2.45669323349918    0.10673864495592
H           0.08389325724935   -3.36875565571674   -0.13010075621247
O          -0.63023374236475    0.78673138475101    2.15997455637654
H          -0.77469853990848    1.27135117401819    2.97439821523512
H          -1.09046488621844    1.30283904994194    1.44924677042826
O           3.19792556656713    0.29745801613619   -0.27471014579860
H           2.78866309949201   -0.03804869604657    0.56341777018889
H           3.10617398639890    1.25218060227647   -0.24591476631912
O           1.70414614716137   -0.62566586857880    1.69675900916964
H           0.94177400860308   -0.05472734065043    1.89372158000521
H           1.32844516888507   -1.42848858398217    1.31023960901398
O          -1.90712900540866   -1.39171072741307    1.02997433803464
H          -0.60828075627232   -2.10639984931568    0.49397413235708
H          -1.57560101813452   -0.73102594065242    1.65930671093469
H          -2.08047385098476   -0.88389845156343    0.20932740458369
N           1.07835092796794   -0.52810022541181   -1.62472320516085
H           0.50385441907976    0.36947705217448   -1.52260898386788
H           2.03322803637372   -0.28769472015125   -1.23346032905921
H           0.66074949955427   -1.28584789283065   -1.03795861582117
H           1.11897136759493   -0.80782456196659   -2.59806312166298
