    26
        -50.46163605  Gyration_radius:  2.55685003536 Dipole_moment: 2.242
 S           1.00474823177736   -2.00284815423309    0.63617125414101
O           0.55888968212765   -1.14581169758097    1.73381066680422
O          -0.07487499809621   -2.81146286986985    0.10151890021800
O           1.73457927797665   -1.23509065185365   -0.34555192185036
O           2.03501943792758   -3.03934674465312    1.26510843990003
H           1.45766405700279   -3.71960685920021    1.59671971255866
O           0.58086514193236    1.86331595283977   -1.51899994457390
H           1.14213927407598    2.39365035041905   -2.08517531393924
O          -1.81418698241108   -1.21380134213135   -0.95937583358419
H          -2.59776597290388   -1.73339874371399   -1.14661025892972
H          -1.18085661301744   -1.82747844980533   -0.50579900675433
O          -1.96282069201355    1.48114342179902   -0.34878676587235
H          -1.98768548618276    0.52065824096277   -0.50021859220816
H          -1.22168146098097    1.80386794094242   -0.87942215008255
O          -1.21500331239917    2.11928747754597    2.10163951143733
H          -1.64673440298018    1.97089082824194    1.22180872260027
H          -1.50128319898778    1.39215412252994    2.65847760126755
O           0.37769426029870   -0.51602095429435   -2.49538099220128
H           0.50737635932957    0.96345497188160   -1.96716150577320
H           0.98542368465971   -0.90685609354113   -1.83259312451937
H          -0.50661290301442   -0.79660597090888   -2.20940126980966
N           1.08995006479526    1.30347653562155    1.09339681608389
H           0.27742515642606    1.78454074057756    1.57424480509674
H           1.00902514574332    1.46567890766505    0.06384840436329
H           1.98761054716792    1.62329342733903    1.43861256364248
H           0.96109568174292    0.26291559317868    1.30911927200155
