    26
        -50.47250300  Gyration_radius:  2.48726611138 Dipole_moment: 2.876
 S           1.74460261618374   -1.39025058456956    0.40915174582916
O           1.06315042323665   -1.60718491155154    1.67948332648882
O           1.28518109932433   -2.30519416787778   -0.61822490675034
O           1.70507445819485    0.00163096674354    0.00323155157623
O           3.27144812720003   -1.73445445185067    0.65434651269885
H           3.23091723580357   -2.67881528052167    0.75905819883187
O          -1.11281654154030    2.29840237218827   -1.03300854109318
H          -1.36157565306101    3.01393833164629   -1.61830320217850
O          -2.36045862279798    0.11638204948767    0.09440912186947
H          -1.98941077355799   -0.58271738500519   -0.47655088182356
H          -2.10388505166167    0.95591015883758   -0.32803509486322
O          -1.06579630954552   -1.68801318581131   -1.49899594824715
H          -0.17966930937227   -1.95701751987088   -1.14035639152068
H          -1.45677466153238   -2.48475786584068   -1.86053761526813
O           0.66431407993893    2.25099112689903    1.07261493794947
H           1.27040133663147    1.59234218477561    0.68571635794825
H           0.05091734639963    2.47892103619933    0.35014365176064
O           0.39277668829249    0.55990626132997   -2.25582613233207
H          -0.52462083802781    1.68808554666505   -1.56597585455349
H           1.02270677658900    0.36703458682957   -1.53247765978555
H          -0.16552530690790   -0.22986915857242   -2.30608563014046
N          -0.69138532253561    0.26630231338025    2.13507812183607
H           0.00288829330393   -0.52821221053007    2.02198096102140
H          -1.06242904277735    0.29408868364644    3.07761101031847
H          -0.17064025767597    1.15932974336235    1.88015863533515
H          -1.45939080473193    0.14322135231471    1.41139370825676
