    26
        -50.46132334  Gyration_radius:  2.4813477752 Dipole_moment: 7.393
 S          -0.97739905228591    2.01447049292595    0.10561379882361
O          -0.96444225812717    2.30450625816422   -1.30389722337976
O          -1.39500507951821    0.65963624055595    0.43969647504819
O           0.28736136798646    2.33625801468133    0.76951324878065
O          -2.06765108209068    2.97743230140647    0.73893083545030
H          -2.12924824908059    3.63897640527261    0.05854446203474
O           1.95285225542180   -0.92042343195161   -1.05741480719267
H           2.69754952597721   -1.02482956258740   -1.65039936937910
O          -1.84509634272523   -1.35964662676997   -1.39575350511754
H          -1.30948101052822   -2.05345672879622   -0.96780139208678
H          -1.92275940083973   -0.65217079956872   -0.73733971877250
O          -0.39418815986816   -0.96456962657922    2.19338705175588
H          -1.00603495415434   -1.08679992107316    2.92024925090117
H          -0.84339095207447   -0.35320353715211    1.55137264425121
O           0.06363458957283   -2.74712910143828    0.03688749193497
H           0.79631366190599   -2.28106825330930   -0.38907531684387
H          -0.10163065883951   -2.28621669678656    0.87107017039441
O           0.09444533495640    0.12666182963081   -2.44545373312236
H          -0.66364641814722   -0.48523952425965   -2.28428092773655
H          -0.23029522138164    0.99397846451308   -2.13680436391654
H           1.21733687885838   -0.48486938822763   -1.61861055678239
N           1.77949390511968    0.32239021189561    1.27516377224421
H           1.20220544150403    1.21616598342256    1.06289013434456
H           1.96586465019203   -0.15872553207025    0.35488771156802
H           2.63776902352018    0.54679986965028    1.76582672242637
H           1.15544220464611   -0.27892735154878    1.84279713437171
