    26
        -50.46603981  Gyration_radius:  2.42517821639 Dipole_moment: 5.926
 S          -1.98770209316214    0.05823103746895    0.50291265583097
O          -1.02983530141849    0.76900280489224    1.36014639046544
O          -2.56762280760774    0.88679179942586   -0.51789531340108
O          -1.37811080414747   -1.16840834956386    0.02257045252283
O          -3.18379889772375   -0.37099770294401    1.45027195834585
H          -3.85368063475116    0.23635018134791    1.15705234709563
O           2.39875374781218    0.73840321980965   -0.17867689767022
H           3.22750408275484    1.14857416824849   -0.42599459193726
O           0.68662850665853   -0.93166093178572   -1.71327918870833
H          -0.10536822693058   -0.97528779359844   -1.14709725516832
H           1.33527403483544   -0.37292800828406   -1.26004766863137
O          -0.68787820245481    1.46029760519482   -2.38129305054765
H          -0.24830202547105    0.60577455457418   -2.50988535729671
H          -1.50103452750998    1.27663641423329   -1.87842851205659
O           0.60577438794094   -2.90950931219378    0.38327435310888
H           0.96842686640917   -2.73899394114843   -0.49769812062473
H          -0.32799073649230   -2.64651795257919    0.30610550003750
O           0.47294111184295    2.42478402878325   -0.19595817684691
H          -0.15658419243899    2.02664424351480    0.42946788330131
H           1.69847638615256    1.47237146475038   -0.19813888637686
H           0.07465706061878    2.27570846420713   -1.08728098637713
N           1.12545148323502   -0.66067792712550    1.70025270562446
H           0.97301961554029   -1.62088763980325    1.26818531173354
H           1.43961287734119   -0.72794062819604    2.66217625042908
H           1.81216363888785   -0.14155135919273    1.10852695417521
H           0.20922467008151   -0.11420843003097    1.64073124296841
