    26
        -50.46253582  Gyration_radius:  2.45912023015 Dipole_moment: 4.969
 S           0.24942183180162   -2.05160685701611    0.05790552862272
O           0.31700660914295   -2.38584768840644   -1.34028205259929
O           1.52615158636206   -1.61468327689676    0.61841373932092
O          -0.80913331303977   -1.11779998300543    0.40760227657638
O          -0.12396123675646   -3.40088485094678    0.81616233820924
H           0.32268713675440   -4.05391613304199    0.28737852609463
O           1.12495697506091    2.07943935789018   -0.41336339799137
H           1.66940262787768    2.74034250760828   -0.84254606629374
O          -1.67178883841540    0.49697843067882   -2.75750385318674
H          -1.87019436655928    0.94349245742158   -1.91109138319891
H          -1.98883668876838   -0.40393999575992   -2.66713833877319
O          -1.61030921669611    1.39031343645483   -0.16884551100734
H          -0.77070711133671    1.86226674382202   -0.25679362932209
H          -1.36801569206739    0.45651048333449   -0.02115084661768
O          -1.26363803291563    0.39890892372629    2.54492330740926
H          -1.27558078868596   -0.37992700295385    1.95388295090953
H          -1.77156575765073    1.06538465244995    2.06516331136625
O           0.91935335019246    0.11253135694409   -2.06875093232937
H           0.06715441422853    0.30764054807273   -2.51544336379553
H           1.09928247052769    1.29659561173656   -1.04564794856189
H           0.85151814688508   -0.82413961689523   -1.81101735840319
N           1.29056702460246    0.63578863894033    1.83831430653618
H           1.43405229330746   -0.33019538623961    1.37863279238041
H           1.32825661898069    1.32860442373512    1.05810640158649
H           0.31945588894780    0.63432395875754    2.25746018623395
H           2.00446405822654    0.81381927959105    2.53562903683253
