    26
        -50.46603937  Gyration_radius:  2.42513826975 Dipole_moment: 5.931
 S           0.77584090046765   -1.78183921750966    0.65584797555646
O           0.11616567977910   -2.75734514770447   -0.16756227011667
O           1.65174057267561   -0.87538669630264   -0.09846607820867
O          -0.10527398036583   -0.99831372143811    1.50229340995823
O           1.72705452236298   -2.59851047589435    1.62569350016206
H           1.72036845000716   -3.44404039052942    1.19135227590299
O          -0.30578097670336    2.03698479490244   -1.44493564782001
H          -0.54489990180373    2.66173074975273   -2.12954684193072
O          -1.76360049889648   -1.52930630679371   -1.68178196179231
H          -2.18441117135447   -0.92594851908776   -1.05034143681542
H          -1.22093456349894   -2.14204048184732   -1.15456875433207
O          -1.98249816424406    0.51761192874231    0.27373599276636
H          -1.48968206854244    1.08412970041086   -0.33824479154627
H          -1.34417761325443   -0.09774106321864    0.67823800124722
O          -0.52748982242666    1.39218531759843    2.60117377359880
H          -1.36805696905327    1.49984008375150    2.13349756091835
H          -0.39520508686253    0.42845556750508    2.62390369242228
O           0.41635431727170   -0.21116030960639   -2.43369445492398
H          -0.41585573648700   -0.73971303469673   -2.37601499145119
H          -0.02133840159397    1.18644020768388   -1.91938590251543
H           0.99008305752140   -0.57005029222412   -1.73508114694284
N           1.27336153498673    1.59266196395864    0.65719776729802
H           1.49785007656358    0.57723067990445    0.41205661051016
H           0.75750450444302    1.98239931422238   -0.16320896692862
H           0.61839615415394    1.59954986742853    1.49566547433263
H           2.12448519485136    2.11217548097777    0.84217721064674
