    26
        -50.46361260  Gyration_radius:  2.49246412083 Dipole_moment: 6.658
 S           0.35481082352258   -2.32474259044465   -0.08308613254346
O           0.80670241234801   -2.29309678213578   -1.45371040651389
O           1.43590577082868   -2.05407875396178    0.86622120302962
O          -0.79592973047069   -1.47895363424516    0.18592959560768
O          -0.11789803515483   -3.81399721384405    0.19120958651335
H           0.51299827682132   -4.30205658161750   -0.32697844403880
O           1.25587264778135    1.86615330210760   -0.49405256099479
H           1.93729305579850    2.41670764422677   -0.88142356954965
O          -1.97781530123583    0.17603431669525   -1.59523031089246
H          -2.01138761905683    0.95334203139390   -1.02003359619586
H          -1.70707576002419   -0.55860637705798   -1.01540829139388
O          -1.36847729236333    2.36427950527725    0.11378681934383
H          -1.64358507422220    3.23970300870474   -0.16049727594066
H          -0.42327166171669    2.27275874688042   -0.11829558670084
O          -1.36660183327355    0.34705693469661    2.04462467010008
H          -1.63152510949410    1.09185882496831    1.48403030957587
H          -1.37303966883464   -0.43525561020503    1.45609289343454
O           0.60145011875926    0.20703517661737   -2.30012592610951
H           0.79383231126905   -0.72796409651539   -2.07563291148605
H          -0.38155459564934    0.25027921571029   -2.28603338414890
H           1.02457579020062    1.17541993116317   -1.21735309999453
N           1.23717944198048    0.34553251132136    1.75696867391320
H           1.37576135537541   -0.66973474899213    1.42144353508409
H           1.39238183899076    0.97484161979143    0.94399526926512
H           0.20845756128041    0.41596739200037    2.03754052929160
H           1.86094028653994    0.56151620746497    2.52601843134388
