    26
        -50.46132384  Gyration_radius:  2.48145109519 Dipole_moment: 7.420
 S          -0.56234686296914   -0.96216444766883    1.94399787373807
O           0.29696834602708   -2.11110148290210    1.83150664501546
O           0.06467188508407    0.29982409212707    1.57608295336418
O          -1.83316580173297   -1.12612948984376    1.23501877263761
O          -0.92660024875294   -0.83743753584693    3.48284282416116
H          -0.75380008714289   -1.72620524622732    3.77387894854997
O           0.22846924069823   -0.71613175672558   -2.28196003885366
H           0.33168043714228   -1.28037677063000   -3.04882961850336
O          -0.91174845230019    2.24476167043355    0.16903025339470
H          -1.07488200702387    3.00753230979938    0.72495166579137
H          -0.52093304384934    1.54807512522143    0.76028486273867
O           2.58508815580314    0.55683679800522    0.46571833329651
H           2.34531551045093    1.13860889985720   -0.27957391676056
H           1.80932711832488    0.55163213549893    1.04725877880766
O           1.27191584689633    1.84167491358213   -1.59468035063395
H           0.98484445035188    1.01082512104469   -1.99815853820493
H           0.53290043001955    2.14781407896364   -1.05095750802525
O           1.65217916803351   -1.75906746565606   -0.44951530525857
H           1.17012093392812   -2.02766227048177    0.35590156001812
H           0.79116979603258   -1.15120673873749   -1.54661845276491
H           2.21060545362696   -1.00017477991508   -0.15382231926356
N          -1.96106608090264    0.07448872548279   -1.01913033687007
H          -1.15982715342942   -0.28279122012087   -1.60547149028968
H          -1.76535512286114    1.05702601524678   -0.75490305998537
H          -2.85052933404338   -0.01921888632379   -1.49644831580591
H          -1.95500257741180   -0.47943179418345   -0.08640424029366
