    26
        -50.46361258  Gyration_radius:  2.49249701119 Dipole_moment: 6.658
 S           0.42061970173575   -2.29964567220059   -0.26767437608621
O           0.75552120105506   -2.16309834374501   -1.66524165487692
O           1.56793077909863   -2.05104722681229    0.60697619736207
O          -0.72980385062448   -1.51598560515883    0.15003310137636
O           0.01957904691344   -3.81997254492923   -0.05691543743913
H           0.61959056687124   -4.24991488346989   -0.65686369126321
O           1.15026606163820    1.93903807564435   -0.46778461810723
H           1.77910640860139    2.53826205875428   -0.87153728132566
O          -2.10872011264694    0.20486101537418   -1.41407887880412
H          -2.11911927494806    0.94181232658208   -0.78722432577470
H          -1.76737067755744   -0.55484615753583   -0.90865592613996
O          -1.42868196017549    2.29959565527086    0.38340992881654
H          -1.75288100065180    3.18038197811538    0.19270661128495
H          -0.50367368850828    2.25831617337759    0.06992580721900
O          -1.20153045491955    0.16379627916903    2.16766312401143
H          -1.53585453100979    0.93283620437892    1.68185655658099
H          -1.23227574977735   -0.57857611006830    1.53022054764912
O           0.40042282322711    0.37689199920908   -2.32266620116966
H           0.64052765691415   -0.56273819759397   -2.17774896307552
H          -0.57882699854583    0.38254418729357   -2.22593686434846
H           0.88136992973366    1.28829324270725   -1.21488005043785
N           1.36792920853188    0.27727246807344    1.67007689673222
H           0.36445663332707    0.29127119710954    2.03722248738835
H           1.51022881995012   -0.70850556361552    1.25710936483020
H           1.43464822261309    0.96292439611330    0.89129550175573
H           2.04654126915468    0.46623301795580    2.39871215384034
