    26
        -50.46253653  Gyration_radius:  2.45869811352 Dipole_moment: 4.991
 S           1.74900156379604    0.91679119868817    0.61283295247647
O           2.13346886068402    0.49612472521349   -0.73271913456098
O           1.35866603993619    2.29948090117630    0.69544642649596
O           0.79608136382668   -0.01827057979968    1.18920473794639
O           3.05826220595152    0.77311253419664    1.50757864426503
H           3.48966175693906    1.60869768940584    1.36165064360348
O          -1.45650510357819   -0.32778278130908   -1.88181416696399
H          -1.99217690730100   -0.13250768160778   -2.65141997600147
O          -2.34251902479273    1.82736182880718    1.34726523539141
H          -1.69275485825802    2.07869080313875    2.00679469912095
H          -2.35543067214368    0.85034123929617    1.33407450094912
O          -1.76273711153530   -0.81157467539809    0.89153806299727
H          -1.88614476972644   -0.76779168871252   -0.06660732135096
H          -0.86281633201710   -0.46965428025833    1.05218856556950
O           0.48386313599079   -2.65198873838763    0.97319791103399
H          -0.46274530912659   -2.63555424905655    1.16353721864593
H           0.80854862429548   -1.79250477074324    1.30743652808952
O          -0.78040194564425    1.94353087524715   -0.86345461667642
H          -1.15478282023643    0.56457194757752   -1.52741899613087
H          -1.45605151479235    2.06610880863640   -0.16189384699173
H           0.06808908694396    2.12420725959280   -0.42086395790606
N           0.85389475312639   -1.61524202318063   -1.44923397896322
H           0.71590299169715   -2.17974335294017   -0.56544842327638
H           1.30670418850592   -2.15574417479787   -2.17754821287248
H          -0.06643257228151   -1.23469031482640   -1.76318816929175
H           1.44935436973936   -0.75597049995933   -1.18113531560126
