    26
        -50.46361280  Gyration_radius:  2.49265613563 Dipole_moment: 6.644
 S          -0.24033330196845   -2.34133349625707    0.03345445177706
O           0.32444675964648   -2.49842655495577   -1.28574888829424
O           0.78595131650015   -2.29351390132198    1.07630029715460
O          -1.16041104817430   -1.22353069870788    0.15976649803859
O          -1.09399683175235   -3.65017721678466    0.30601786600006
H          -0.56636966664144   -4.30528116115200   -0.13818264207308
O           1.72476300709498    1.46447783492180   -0.43225992772564
H           2.55342302426063    1.80621930704767   -0.76994337322554
O          -1.72397706127452    0.56820048108356   -1.78431417853900
H          -1.60917176408956    1.36120012334595   -1.24186425383073
H          -1.69917115330481   -0.17601949490694   -1.15602474839589
O          -0.73098109808570    2.63224047161461   -0.10201252991692
H          -0.75264079368498    3.52984000867084   -0.43549871774777
H           0.17698951398965    2.29589064661008   -0.23682378580540
O          -1.40364811022856    0.79325982642714    1.88842059648675
H          -1.42308115445688    1.54676418880226    1.27931219400328
H          -1.55791400994555    0.00422308560506    1.32972149060281
O           0.83017384166137   -0.08002833523893   -2.23682357118395
H           0.76072986122143   -1.01869841597179   -1.96156909955825
H          -0.10782549018396    0.20596990790261   -2.31943730601048
H           1.38967401939536    0.81282711885532   -1.15129445249291
N           1.12959010985160    0.12799597576922    1.85676372437088
H           1.03410011052046   -0.90765407760956    1.57260327065816
H           1.50826623993229    0.65055468389583    1.04154752755873
H           0.13201272967385    0.46860298411785    2.03282613009617
H           1.71940097004298    0.22639672823701    2.67506342805284
