    26
        -50.45920799  Gyration_radius:  2.51559070256 Dipole_moment: 7.244
 S          -0.30710654597585   -1.76157707863397   -1.07804975411247
O           0.95171698594344   -2.21572680880577   -1.58759845222663
O          -0.38018577398566   -1.63070855351627    0.37318252012795
O          -0.83213237264918   -0.55593613854876   -1.72490662275691
O          -1.37156179327591   -2.90240167387018   -1.43478764788573
H          -0.87952595652247   -3.50504557744650   -1.98378750722882
O           0.75798970670607    1.88349154930934    1.41090889969279
H           1.43088640766804    2.53207115372030    1.62328034750045
O           1.79670707303509   -0.73178122049347    1.77115622238249
H           1.05905180669373   -1.22724248503508    1.38253691421177
H           1.45719518768004    0.16714645557502    1.89084247640942
O           2.90819072569526   -0.50481519901133   -0.70798915667154
H           2.76056164609009   -0.63116784994345    0.25098965120369
H           2.41262885488928   -1.22284979821671   -1.13219951288227
O          -1.79632814802630    2.45590590579269    1.12581120781923
H          -1.76109067503895    3.08799240997274    0.40450668417100
H          -0.85468564774310    2.28863174353603    1.38272260369804
O           1.04494511747840    1.31496148595529   -1.09186027161269
H           0.36316114595078    0.72239646959190   -1.44775406274305
H           0.87769590938060    1.67236062521099    0.43242007529983
H           1.86432339180986    0.75653616533027   -1.05542805960219
N          -2.34454812216160    0.01542008275201    0.25640558379946
H          -2.20817713267023    0.99296934238718    0.65062964837074
H          -1.97612894692963   -0.03533658418456   -0.73524732372106
H          -1.66795457626086   -0.66639919790716    0.68936092403556
H          -3.30562827774898   -0.29889522355349    0.33485460270904
