    26
        -50.46361285  Gyration_radius:  2.49264431139 Dipole_moment: 6.645
 S          -0.55651252483344   -2.24722385603193    0.42518771164168
O          -0.31431857242175   -2.64961842022253   -0.93989644853089
O           0.66479107258729   -2.25279143682238    1.23233193055708
O          -1.26070508924153   -0.98297589482464    0.55882491939627
O          -1.50901541519474   -3.35229448168620    1.04789732226570
H          -1.18643417419110   -4.13414995082308    0.61257224100989
O           1.78304871063771    1.09122691668911   -0.96736436427544
H           2.56102870562223    1.24586486386034   -1.50432798521229
O          -1.96611301302676    0.64088570373505   -1.48400735757976
H          -1.91377049913378   -0.01899696859664   -0.76914727511899
H          -1.62697387069597    1.46047070187075   -1.09730869185651
O          -0.35483649958716    2.68814383340793   -0.34871429343283
H          -0.31958298338031    3.53136964167486   -0.80158344241788
H           0.44648324301037    2.18962605845694   -0.60381194381881
O          -0.84327748448231    1.23286421443726    1.98394088505959
H          -0.88484838477709    1.90303252388811    1.28518596346884
H          -1.22282748119639    0.42175496345319    1.58827521872011
O           0.31462268666476   -0.47816355575246   -2.31756856593563
H           1.21349560044273    0.42685679617185   -1.50411385370124
H           0.17305371776985   -1.35330568678304   -1.89830667704212
H          -0.56916500194958   -0.04916086210627   -2.25986491659326
N           1.50497945716064    0.15009108572143    1.56580070581688
H           1.77161913778267    0.50286277625441    0.62478665808897
H           2.26323618427200    0.24173040011492    2.23200368891518
H           0.62630943388307    0.67238068500486    1.87752595843797
H           1.20571306427875   -0.88048004109175    1.46168262213728
