    26
        -50.46843420  Gyration_radius:  2.53556754407 Dipole_moment: 4.828
 S          -0.49925985254401    0.77959008008921   -0.02826941971095
O           0.75668186508482    1.39224785630200   -0.45897362139109
O          -0.24217806304254   -0.58515031860338    0.48442326225113
O          -1.09453723923220    1.59514657461503    1.12283225417197
O          -1.46896091835484    0.73749747039020   -1.10303284457554
O          -0.21216087890443   -1.12796077819117    3.09948686592060
H          -1.13913094215216   -1.17603606445356    3.33922790481901
H          -0.18564874564618   -1.03142932177784    2.12556825349235
O           2.67987769686599    1.37550176668239    1.33541330720731
H           3.17205530935528    2.18777851165811    1.20448528902147
H           2.02347158926184    1.33644890142388    0.60465488305459
O           0.76974386214929    0.45355781253233   -2.89088143460287
H          -0.06889562573090    0.79079669314111   -3.21900336262771
H           0.89150623604232    0.90896003016966   -2.02353803100661
O           0.58758493219158    1.44326879200223    3.00187129290347
H           1.45492095695046    1.42730421828426    2.53926765286207
H          -0.42027156345399    1.59864130729133    1.90345735054824
H           0.42111464453898    0.51798922151149    3.27699579638150
O          -2.47110187289531   -1.44170200754711   -2.17068055495274
H          -3.23354726796996   -1.71508771450190   -1.65893283389656
H          -2.21285755819262   -0.55595702829115   -1.81833911440165
H          -0.87430357550484   -1.97844331302004   -2.03177871174220
N           0.11892698718069   -1.82384485875931   -1.74453863552512
H           0.49403621455150   -1.02000619226729   -2.33285542467365
H           0.68992503504335   -2.65935395886011   -1.80691587430750
H           0.06300879436658   -1.42975768983649   -0.74994423919746
