    26
        -50.46843446  Gyration_radius:  2.53636511702 Dipole_moment: 4.840
 S          -0.60687932405910   -0.59617065991996   -0.36763943655585
O          -0.73875300328202   -0.38839089816032   -1.79476715001620
O          -0.27789366018546    0.67939753767210    0.30792080389207
O          -1.95968661927833   -1.06476285586684    0.17546269984579
O           0.41320188691347   -1.59771502174868   -0.06037988833972
O           0.88792480450270   -1.95766673482281    2.50177191044628
H           1.08831711751089   -2.88944349944971    2.60616643328830
H           0.80609055680872   -1.80551556259151    1.53407736309724
O           2.07388896452076   -0.97950145632287   -1.97265578407592
H           1.51041153990227   -1.09042414595248   -2.74394178189430
H           1.54225781488971   -1.35103108761152   -1.22845993347795
O          -1.53812649904205    1.48289578703249    2.52144430952619
H          -2.36863851565872    1.83949417051827    2.20195802050284
H          -1.00674674595792    1.27196036544101    1.72669181453804
O          -0.24871136862978    1.85429047040573   -3.06865943888437
H          -0.51724574307007    0.97721382857496   -2.70263816464977
H          -1.03945364435797    2.39521120105287   -3.05986598282901
H           1.06613494076585    1.90886411052581   -2.00767871687848
O          -1.67282847768253   -1.20385761578409    2.68206907552302
H          -1.66608928852696   -0.24626648963369    2.88809369446683
H          -1.88015094719205   -1.17714703456348    1.19753777487805
H          -0.74289295028618   -1.50244690930660    2.79400420637862
N           1.62317262735483    1.50213786566027   -1.22214565423910
H           2.35216924989101    2.12064402072708   -0.88441292889506
H           1.99726134353580    0.56329045058050   -1.55581480827726
H           0.90326594058399    1.25494018355590   -0.46813845738040
