    26
        -50.46361291  Gyration_radius:  2.49266609676 Dipole_moment: 6.643
 S           0.18578040606051   -2.34353220100115    0.11852233524092
O          -0.86624610434128   -1.39032260784597    0.42964550583210
O           0.46894383736490   -2.47471900294042   -1.29103096433614
O           1.38929076396424   -2.06883769611038    0.90528908262986
O          -0.34586279650754   -3.76050732222616    0.59403883412113
H           0.17310810714019   -4.34032874551499    0.04695328631760
O           1.30804476383424    1.70799020676861   -0.82375565607248
H           1.97141384683243    2.16537769716751   -1.34167529772808
O          -2.14025604524360    0.17811527027156   -1.36611103836829
H          -1.85096900042539   -0.51775995622276   -0.74864095102876
H          -2.05149885113653    1.00629813806028   -0.87367510531592
O          -1.18423653787837    2.46404783995499    0.02560961535392
H          -1.43391752414777    3.32656467343601   -0.30773236880552
H          -0.28222045870541    2.27785874285476   -0.30208034295384
O          -1.07972445674567    0.64414742952645    2.14115149963454
H          -1.36175212197877    1.35103900664391    1.54124888095975
H          -1.21003602050280   -0.18747478902954    1.64112848405206
O           0.32970323849151   -0.05775807772907   -2.36263444438821
H           0.48562468442900   -0.97938910527049   -2.06610969976651
H          -0.63921110891941    0.06302553355181   -2.24005637314379
H           0.94521455788626    0.97236049244508   -1.44090873561925
N           1.46361126016160    0.41266584742115    1.55901892033767
H           0.48368889237088    0.58987887193471    1.94682769656744
H           1.49177208511296   -0.63758156272846    1.31674271395922
H           1.56023293496332    0.94830713532292    0.67313910383642
H           2.18950163791286    0.65053415125627    2.22509499868820
