    26
        -50.46361281  Gyration_radius:  2.49264452787 Dipole_moment: 6.641
 S           0.66626074920792   -2.21725657641330    0.42507715688906
O          -0.57463982419911   -1.47898645427399    0.59065244282114
O           1.03479338182039   -2.45615477497502   -0.95016515059783
O           1.74842517027328   -1.59870651772647    1.19255961490264
O           0.42051532306354   -3.64604329761333    1.06899890845689
H           1.07080084442260   -4.16543706049835    0.60836522239323
O           0.95721216168693    1.83266149839020   -1.01558277909981
H           1.53203987156777    2.35399190922370   -1.57708111770627
O          -2.06730092303865   -0.45188115579181   -1.41531026649924
H          -1.66650456019727   -0.98815189977184   -0.70746483031700
H          -2.17667241886844    0.43033317465902   -1.03334338912599
O          -1.67309966144903    2.13886357539861   -0.31380397363873
H          -2.08132370235112    2.88379484231055   -0.75626681042394
H          -0.73863341421962    2.10992594160807   -0.59945197308197
O          -1.28387326433222    0.65763241757389    2.02051786172787
H          -1.68040984799056    1.20883748396540    1.32904122508795
H          -1.21499531767157   -0.23773345440025    1.63035543593897
O           0.43914961645043   -0.27624827261968   -2.32960439580763
H          -0.53805788367891   -0.35078923647289   -2.24044037170437
H           0.78393115504081    0.96646589841220   -1.53858514286366
H           0.77137901709459   -1.09945809748596   -1.91296128941293
N           1.27470082345742    0.90351557615959    1.51740935116542
H           1.29648960404054    1.33372049645523    0.57113631132297
H           1.53228422684532   -0.13839277904578    1.41477417313643
H           1.90447495093395    1.37109854940279    2.15920770268455
H           0.26305392210521    0.91439822356480    1.86196608374063
