    26
        -50.46361291  Gyration_radius:  2.49265528575 Dipole_moment: 6.642
 S           0.71671791728351   -2.23818164133625    0.13146350635140
O           1.21482319924294   -2.24402916032356   -1.22347836785547
O           1.70085525677420   -1.72212251708390    1.08442562461833
O          -0.56301135536310   -1.56891628163853    0.29418016754287
O           0.47402873642852   -3.75752414694233    0.51786128767403
H           1.18828129037385   -4.17845906468097    0.05147418244311
O           0.96808426182603    1.99587100677674   -0.61907053418839
H           1.57015136870682    2.61474708247915   -1.03378922790627
O          -1.91236474760729   -0.27299819025933   -1.65692459502830
H          -2.09080103133010    0.53344538787470   -1.15288284747673
H          -1.55421579106248   -0.90526806736275   -1.00791867810430
O          -1.72485888626620    2.11760641105127   -0.13155697156610
H          -2.12252964684856    2.91056180579702   -0.49269904912920
H          -0.76804444291799    2.15923294497929   -0.32760764732920
O          -1.48694885042093    0.29156943700903    1.96769696335479
H          -1.84202557503436    0.93607482343256    1.33711448479727
H          -1.34699087506807   -0.52759222447526    1.45016267388476
O           0.65600546241676    0.11287540675260   -2.29228553253561
H           0.98331218995206   -0.75760655391037   -1.98116930211183
H          -0.32137256047224   -0.00069012134082   -2.30861808530169
H           0.87773848155880    1.22080686945763   -1.28609921337687
N           1.09469929534913    0.68083347046924    1.75444076204001
H           1.40357828247349   -0.32370629374406    1.51359830983459
H           1.18325062725297    1.25805471580100    0.89413831718151
H           0.05682605313889    0.60980442947096    1.99885629620106
H           1.64481135961346    1.05561048174652    2.51868746598584
