    26
        -50.46361278  Gyration_radius:  2.4926170191 Dipole_moment: 6.634
 S           0.51045680128158   -2.29758986026050    0.02014036408435
O          -0.29206046684265   -1.42747183654990    0.86341292405905
O          -0.03451647257977   -2.51112845308769   -1.29953492260880
O           1.90314014089467   -1.84866200049335   -0.01815748133342
O           0.51684761256888   -3.71704912355390    0.72813989673472
H           0.70219348918758   -4.28636903213101   -0.01096046238589
O           0.39135195647332    1.75261991814350   -1.44246746906284
H           0.58464703500999    2.22795419480994   -2.25129365300939
O          -2.53984947173029   -0.13803440668145    0.09478503163422
H          -2.29289567110712    0.73179765957016    0.43922667959951
H          -1.86857561325768   -0.75088839882124    0.44560844703498
O          -1.25825533089317    2.33360158439115    0.66613173588885
H          -0.68343347238029    2.20836043602734   -0.11458980345701
H          -1.75754021054995    3.13841769997701    0.52367764866943
O           0.24678667587224    0.70868943527052    2.36687487678285
H          -0.40970280235045    1.33479323227735    2.02609484755878
H          -0.03825764439186   -0.16917902370973    2.04023716228313
O          -1.05774002062691   -0.21475143355446   -2.12912029413863
H          -0.16262761401833    0.93909416960294   -1.73449668364371
H          -0.64738934818856   -1.08987136270950   -1.96334140179272
H          -1.79399109380482   -0.17815148324865   -1.47711111561520
N           2.02327839905824    0.67417276875298    0.44245945332843
H           2.04065951736474   -0.38492083898236    0.24132563302034
H           1.53555113821409    1.14263355698838   -0.34733161844090
H           1.42008536932091    0.78827537377950    1.31727819616407
H           2.96183708748522    1.03365721415416    0.57301199864789
