    26
        -50.46361291  Gyration_radius:  2.49261461602 Dipole_moment: 6.639
 S          -0.28817097523311   -2.33189761781352    0.13903191910471
O          -0.46206165452069   -2.47925489012324   -1.28643941508353
O           1.12182548656068   -2.34244701751475    0.53223801414766
O          -0.97691673942497   -1.18625486299912    0.70931885973339
O          -0.94582326142390   -3.61650657973383    0.79769593221596
H          -0.74226772544680   -4.27802853952812    0.14516477881005
O           1.34370021512306    1.41387271584682   -1.22536315027552
H           1.91038892417361    1.73338916670202   -1.92840408471446
O          -2.35571515540119    0.66888901585556   -0.69208966500992
H          -1.95445402824613    1.44459237708280   -0.27548524405785
H          -2.05345234539611   -0.09036014399247   -0.16161421774438
O          -0.57565810947241    2.65818651117028    0.28239245599013
H           0.13163438123224    2.29391304370777   -0.28561594042293
H          -0.72374570550592    3.56284437285635    0.00480157882804
O          -0.25080541920519    0.79677307402367    2.33896019993411
H          -0.69363231384212    0.02682507465709    1.92720025257865
H          -0.53797576332190    1.56468872939915    1.82232991652706
O          -0.39042979976158   -0.05718724182302   -2.35334317398441
H          -0.35424494359444   -0.99932700156970   -2.08372856322485
H          -1.23334128441424    0.26319280797253   -1.95930993871314
H           0.66996342640132    0.79080985567868   -1.68527376908771
N           1.90482018635890    0.04615431932793    1.05363201267628
H           1.85169839858675    0.57492529656712    0.15996081956206
H           1.63860606451694   -0.97851733653482    0.84914432702307
H           2.82577380831637    0.10461094554558    1.47266704290720
H           1.14028433294079    0.41611392523929    1.70212905228036
