    26
        -50.46361292  Gyration_radius:  2.49261841309 Dipole_moment: 6.641
 S           0.35838076755121   -2.32170731650892   -0.14624973718278
O           0.92505528319967   -2.23370891337223   -1.47108559364849
O           1.35459851404795   -2.09430062225168    0.90201765196355
O          -0.81119426348469   -1.48397050544578    0.05956389942668
O          -0.13483833823737   -3.81991917259998    0.02285220755296
H           0.53085931479900   -4.28577957393751   -0.47183063939831
O           1.29408801419726    1.87989224479334   -0.30983752658433
H           2.00509988003619    2.44387700762212   -0.61626100475839
O          -1.83612782926409    0.24768406646795   -1.74568225215230
H          -1.91734903960512    1.00105802616682   -1.14396161140988
H          -1.61576962983428   -0.51104840761723   -1.17565366794400
O          -1.37171720629701    2.36304071475964    0.09471657812220
H          -1.62293688957651    3.24885310764577   -0.16912028088562
H          -0.41026876551013    2.27726746441175   -0.06022946938027
O          -1.53218548984859    0.26973677875269    1.93543900139423
H          -1.74901521413847    1.03766421180131    1.38547814293694
H          -1.48993585405599   -0.48824768920847    1.31722558138138
O           0.79285678310710    0.29881731247808   -2.23120205244345
H           0.96554469975178   -0.64508399415598   -2.02885479594184
H          -0.18789628341773    0.34482271494499   -2.29747537921323
H           1.12420652897705    1.22028659140673   -1.07787793050718
N           1.08633981820758    0.26915907130093    1.86788184918240
H           0.03767011055487    0.33289089805458    2.06369148662778
H           1.25116708920384   -0.73260984160649    1.50480924673260
H           1.30984938865742    0.93007843456643    1.09699514720988
H           1.64351860097943    0.45124739153085    2.69465113891914
