    26
        -50.46804944  Gyration_radius:  2.48242762602 Dipole_moment: 3.270
 S          -0.48020024256696   -2.20701554597493   -0.19725054139496
O           0.65416026430255   -2.44292809074555    0.69302105821998
O          -1.30952663862987   -1.11296572963010    0.31594604046564
O          -0.12463880775489   -2.02964213546431   -1.57633168223769
O          -1.36497130064339   -3.51749712460937   -0.09676892347317
H          -1.26266647432314   -3.73462402613582    0.82349729734707
O           1.93083193526831    1.46705154285734   -0.57011508810051
H           2.72612857595117    1.81960919468547   -0.97045132380057
O          -1.91868913290344    0.86116395686155   -1.30206518500339
H          -2.82478660202159    0.74954657047915   -1.59138157338230
H          -1.71460810803060    0.08562507833946   -0.72419866163955
O          -0.52255113652903    2.56911898234781    0.37005122342230
H           0.37601090573692    2.39819485127556    0.05426718664538
H          -1.10984728995260    2.14994670476854   -0.28013594309091
O          -0.77158845363257    0.69584529615469    2.24789148960506
H          -0.79282851924904    1.52120762474302    1.70715319097554
H          -1.18284901012434    0.01774564935054    1.67954070192671
O           0.53065439011537    0.38398824122765   -2.44139816337851
H          -0.35740199975197    0.75203120430689   -2.30480247702839
H           1.41484499248703    1.03254089689042   -1.32071552143291
H           0.41360238137292   -0.56929162170110   -2.24732626450933
N           1.57076732839916   -0.17436064046645    1.55666215026813
H           1.28658059369518   -1.13531629506259    1.19479406020025
H           1.84284053322173    0.43158193474448    0.75444346436455
H           0.66968538142634    0.23720552667155    1.99153173600843
H           2.32104642413678   -0.24876205591389    2.23414174902290
