    26
        -50.46361288  Gyration_radius:  2.49257706216 Dipole_moment: 6.639
 S           1.00338873526027    1.10996975088512   -1.81687234697797
O           2.24395752190424    0.38431171995743   -1.68095832087863
O          -0.18713527613597    0.29197925522023   -1.65627666443298
O           0.94872487759736    2.28773431119105   -0.94931394183625
O           0.97095663418301    1.65061014419772   -3.30780051436644
H           1.89361507418496    1.82903980589436   -3.45524681564162
O           0.57801507698850   -0.40692769208767    2.19208180836543
H           1.11770149333057   -0.52134503166055    2.97513584177733
O          -2.41783850118519    0.52461191712659   -0.21261185721973
H          -2.42635057237777   -0.33301288696189    0.23857572312973
H          -1.76854208629130    0.42880029971476   -0.93908046236261
O          -1.69078346795148   -1.68169107225398    1.33662939561187
H          -0.89162678756004   -1.26804197832218    1.71862230686021
H          -1.94555925757446   -2.39713271854849    1.92025022497583
O          -0.21136723655114   -2.33046252744628   -1.00212366240304
H          -0.21609205693206   -1.46002288133929   -1.43987891966735
H          -0.87584107208096   -2.26508890439488   -0.30183329939532
O           1.93318976004290   -1.37247530362336    0.27531350523355
H           1.14878041404308   -0.76514434123240    1.41768197256494
H           1.27658992850075   -1.94083902232220   -0.18763997517554
H           2.18853140776356   -0.71469750152275   -0.40566611211807
N          -0.53997566381988    1.80836768353046    1.08645364830985
H          -1.42050724625231    1.39013511297994    0.64862390689174
H           0.09658484460488    2.07173610199023    0.25696807467507
H          -0.74354402894539    2.61948958045917    1.65899299705686
H          -0.06487249463460    1.06009620845780    1.62997347705663
