    26
        -50.46361287  Gyration_radius:  2.49259643803 Dipole_moment: 6.641
 S           0.38096555308685   -2.17311486015633    0.81952689670111
O           0.73439573216865   -2.68963441942432   -0.48135008505974
O           1.52207203089445   -1.56566009798321    1.50637765806830
O          -0.76043600597020   -1.27351150272022    0.81444668706664
O          -0.04862068213959   -3.42790983302427    1.68993210473524
H           0.54491424020856   -4.09172270261496    1.35520883250507
O           1.19112064058238    1.49945061610600   -1.27927705353969
H           1.83631540015241    1.84105716839004   -1.89936994797821
O          -2.08873737593146   -0.43920556513875   -1.38689413333567
H          -2.09201218857058    0.50261089859249   -1.16503931769997
H          -1.76648053842158   -0.88883872858396   -0.58488561675355
O          -1.39042849586684    2.23719267388202   -0.73380800534480
H          -1.69870286044844    2.93278481529003   -1.31559425944244
H          -0.46282834730859    2.04730230516464   -0.97683777030278
O          -1.22093502136559    1.14872873148386    1.83228086434139
H          -1.53631825649492    1.61514869736589    1.04356292854911
H          -1.25864496602417    0.19753846874482    1.60360611915233
O           0.43149730886385   -0.72702225439627   -2.23228910180988
H           0.91794467707364    0.58314561422211   -1.65299016938226
H           0.65371918974787   -1.49932010661426   -1.67029633989334
H          -0.54847243686048   -0.66721189555142   -2.16499554085022
N           1.35528747029813    0.99329914779640    1.38432301782818
H           1.48356237496367   -0.07375713897491    1.46987735318856
H           1.44298038546002    1.24690238709379    0.37970199932817
H           0.34838670052609    1.18529140001681    1.68645957386011
H           2.02945547137462    1.48645616103550    1.95832330606823
