    26
        -50.45476216  Gyration_radius:  2.60271111326 Dipole_moment: 5.742
 S           0.66247094775716    2.49199832163985   -0.49915872225794
O           0.47160517241429    2.70861407373735    0.91989013167351
O           1.48532812506589    1.35354101184191   -0.83089204584463
O          -0.61897306986752    2.42469718999842   -1.21868399802266
O           1.40463657290964    3.78784390742278   -1.04146353809527
H           1.00214056999537    4.47834225803985   -0.52381542899381
O          -1.99980599267725   -0.52381771349303    1.03858403129027
H          -2.73839806729575   -0.02749909746602    1.39233180547552
O           2.02312330028505   -0.82249542990538    0.57358895307488
H           1.70593909934348   -1.43479642071945   -0.10409188191086
H           2.05856599557807    0.03428496525713    0.10471697671837
O           0.50270608676119   -2.31074118657877   -1.32516123308819
H           0.87965957151636   -3.07197623126006   -1.76626040660220
H           0.08340169306945   -2.63641548318017   -0.49112297416824
O          -0.49228702950894   -2.84470199374194    1.07470672701722
H          -1.20292381270257   -2.18999830869686    1.16411548021245
H           0.21836935726814   -2.53754264689764    1.64614053820854
O           0.13989202210465    0.35902077169773    2.08158577885886
H           0.25817830593197    1.28541383875622    1.77562580972013
H          -1.16710282325753   -0.14667500599621    1.49974987897038
H           0.89012398907858   -0.12796124791554    1.67533488811405
N          -1.11509338651936   -0.06372194576706   -1.44705081175777
H          -0.27572422718815   -0.65125987213198   -1.55121599082959
H          -1.76080943258384   -0.24869084367907   -2.20801579667270
H          -1.55831405577862   -0.28380444864590   -0.51756699646801
H          -0.85670893169672    0.99834152773521   -1.42187118468512
