    26
        -50.46361291  Gyration_radius:  2.49260502578 Dipole_moment: 6.643
 S           0.32122565095753   -2.33023277475426    0.08335467347069
O           0.13243676951109   -2.49067792316114   -1.33884954589359
O           1.70213479236842   -1.98679439845314    0.42675325599162
O          -0.61300924224678   -1.40992339347341    0.70964490388038
O           0.04060622924927   -3.75250252520075    0.72758473749959
H           0.37926230355902   -4.32719107814302    0.04946789220612
O           0.88743805429127    1.73263861319749   -1.23162251409712
H           1.32516317005272    2.19875245324707   -1.94480510891029
O          -2.47505435325587    0.05675532288727   -0.58978710260052
H          -1.96790299656131   -0.60962912800187   -0.09179585774053
H          -2.26780781487752    0.90145639035537   -0.16571523645110
O          -1.22171970056628    2.41667738967607    0.37761923065021
H          -1.60606986600743    3.25894258880720    0.13220220984642
H          -0.46915950732244    2.25600959261327   -0.22520494462937
O          -0.34874300810072    0.66267233910102    2.36779530472369
H          -0.84336310882815    1.34092410494120    1.88367209682312
H          -0.59719221547230   -0.18727580448054    1.95022242873616
O          -0.45978654422076   -0.11185580103458   -2.33882437472563
H          -0.17357202803104   -1.01817907563264   -2.09734852690812
H          -1.33950234951727   -0.02499438254290   -1.90639169123041
H           0.37613333801347    0.96660197776969   -1.68494493462363
N           1.87203153520296    0.51285145029544    0.98675052604272
H           1.86754710030677   -0.54187677214153    0.76304738125325
H           1.64891188026701    1.02661095019025    0.11070388486793
H           1.06585137034921    0.66285639193934    1.67200808983299
H           2.76414053087910    0.79738348199925    1.37446322198556
