    26
        -50.46843447  Gyration_radius:  2.5364261252 Dipole_moment: 4.832
 S           0.33632436415864    0.43059440835049    0.74590364592673
O           0.27688093695441   -0.73077108560211   -0.17026468482317
O           1.44821459848071    1.28962266745503    0.39526250480086
O          -0.93451974921514    1.15314474290256    0.71391695601224
O           0.57715219879463   -0.11279704203933    2.15706008524850
O          -0.05999202627183   -3.22312912220168    0.72931537814357
H           0.04924192888829   -2.35069172674548    0.29864153738174
H           0.80961741000034   -3.47897402442345    1.04145711262495
O          -0.39083492083505    2.69450573001866   -1.31709626328156
H          -0.73078452933769    2.21246545471305   -0.52556462192183
H           0.40453397805244    3.13398825853186   -1.00255559001391
O          -3.07260716645392   -0.31203914773182    1.16266465163590
H          -2.31630209624599    0.26332773172623    0.91100411616343
H          -3.68467274041683    0.25087504452181    1.63991252242688
O           3.01257186809010    0.99109077427372   -1.69211171004839
H           2.53397830028719    1.17808577624564   -0.84869990439616
H           3.72555326607212    0.39393297979831   -1.46184665375956
H           1.55045759474726    0.62231238171822   -2.45560937603575
O          -1.31248461039595   -1.73268645412558    2.59193353965743
H          -0.19691309266278   -0.75051312406643    2.39798396787037
H          -2.07948281628491   -1.32879593538805    2.12820924659826
H          -1.01616568813934   -2.46726320596278    2.01559784885472
N           0.51420196630970    0.48681735896018   -2.42714930486110
H           0.08226511461956    1.42404211016430   -2.16658607411606
H           0.33826589323026   -0.13945326147081   -1.57587603449638
H           0.13549999739009    0.10230872034410   -3.28550292559668
