    26
        -50.45476262  Gyration_radius:  2.60378745188 Dipole_moment: 5.764
 S           0.04105160483552   -2.47283791302324    0.89206802719133
O          -0.19820509861091   -2.84945682876057   -0.48568475227642
O           1.11909662491025   -1.53233962935696    1.08250317069198
O          -1.18433130201938   -1.98679671138175    1.54556261564885
O           0.44049547896876   -3.81281963196609    1.64638095605387
H          -0.12253588317593   -4.45292821115042    1.22206955078681
O          -1.80885327033099    0.81879206712799   -1.18840672855259
H          -2.64356500249448    0.46510706319938   -1.49684597190759
O           0.21490570477913    2.67954239108072   -1.50461218632087
H          -0.63234853127258    2.20680167610683   -1.52535143143022
H           0.83306670459845    2.12777570515965   -1.99385399233898
O           1.04030485290631    2.30120272393461    0.98659636059630
H           1.58763204262712    3.00961998163257    1.32533585930136
H           0.71645917052311    2.58449947151022    0.09624225123240
O           2.16351190641107    0.21789821824381   -0.60348445176798
H           1.99986961697739    0.98389200867231   -0.03667589038330
H           1.99165986235874   -0.54132671163807   -0.01244686384654
O           0.05862564905826   -0.69831005800447   -1.99748776197289
H          -1.08963876019319    0.18754155390811   -1.55305879307812
H           0.90226655996155   -0.34773484076856   -1.63606138213980
H          -0.05339078549799   -1.56712717640319   -1.55198413047629
N          -1.07355035209124    0.55228856415924    1.37316935352190
H          -0.11952766100746    0.93702915890411    1.42406372010018
H          -1.07479701299209   -0.53160941141745    1.51862503596848
H          -1.66165249450695    0.99827775495066    2.06991615336878
H          -1.44654961469699    0.72301880525775    0.40342128200729
