    26
        -50.46254370  Gyration_radius:  2.49153900848 Dipole_moment: 7.197
 S          -2.09668606261618   -0.54021469445485    0.97487249299372
O          -2.71696473992243    0.51982744838918    0.17495692421452
O          -1.20193120665540   -1.33718556550275    0.13439038315253
O          -1.47566579069926   -0.06127641397372    2.17615814388013
O          -3.27917632479081   -1.50244744338351    1.39937796792493
H          -3.67932484236791   -1.70091390472489    0.55931816825081
O           1.45996408922522    1.78764128188155    0.22951225381440
H           1.88600864960307    2.58325990216244    0.55012408731097
O           2.36123755781030   -0.32362147140748   -1.26106956125080
H           3.31447230856387   -0.31996328326684   -1.35434703750578
H           2.11922388274085    0.47516419034258   -0.75181360337650
O           1.33438822250161   -1.96336279415526    0.81985642307420
H           0.37686796112127   -1.89772877415053    0.64586717033069
H           1.76385525971315   -1.61671235486528    0.02495860920995
O          -0.19923293991620   -0.77078004974011   -2.26321063373767
H          -0.61398819044374   -1.16575546692118   -1.46610810997851
H           0.75609288393509   -0.82777800778448   -2.11318640075365
O           1.14510839388226    0.28359294007138    2.24032510233722
H           1.32216972432432    1.19877132229928    1.06535112002134
H           0.17766436999221    0.22596886177547    2.38539271310282
H           1.37665952723326   -0.61007651135857    1.89613626595805
N          -0.82242640589476    1.54645282368412   -1.22318677477975
H          -0.56535701663347    0.69541458626463   -1.81811421653010
H          -0.00289541236460    1.77271120231323   -0.62167507135696
H          -1.09717333306955    2.33997288819975   -1.79127615535099
H          -1.64289057527477    1.20903930830766   -0.61261025095990
