    26
        -50.46361291  Gyration_radius:  2.49269559401 Dipole_moment: 6.640
 S           0.09172989352022   -2.35152731462371    0.05497293709385
O           0.20237136082312   -2.46299480938683   -1.38003732859885
O           1.39003731479830   -2.14714768152651    0.69956157543381
O          -0.87186787720967   -1.36069481118057    0.50417938609137
O          -0.44520931704789   -3.75431487089275    0.56537036143120
H          -0.01893694892755   -4.34425552708847   -0.04708299160281
O           1.27928369308131    1.66808265471748   -0.94163396727482
H           1.89827568644346    2.10763663274341   -1.52570878345825
O          -2.27429611415336    0.30088009169432   -1.10189696992509
H          -1.94665956361063   -0.42038151871780   -0.53476131837546
H          -2.09145149132004    1.11328081271325   -0.60912576381059
O          -1.06027028734707    2.51223626757968    0.20691530844960
H          -1.30788870425019    3.39162261300192   -0.08071427260616
H          -0.21192847915333    2.29453844250204   -0.22734919743711
O          -0.79262544436119    0.64232257292061    2.26380717825705
H          -1.11003983548893    1.37409444198081    1.71347958615433
H          -1.01811967741927   -0.17147540420956    1.76840135627004
O           0.04923988527471   -0.01861602105532   -2.38571126168263
H           0.19666887697529   -0.95259297494261   -2.12572868454523
H          -0.89230598593784    0.14098854703729   -2.14807287585698
H           0.81399967970522    0.96292452383025   -1.52466232005570
N           1.65229696462879    0.31345359900874    1.38319717894532
H           1.66931667579632    0.86448192995954    0.50161196393092
H           2.46089279000146    0.50458932930408    1.96353325308498
H           0.73329592591238    0.52415836466037    1.88636154055111
H           1.60419096926800   -0.73128990002789    1.12109408953518
