    26
        -50.46361290  Gyration_radius:  2.4925511946 Dipole_moment: 6.641
 S          -0.15278685253362   -2.32855570402027    0.30554613168634
O          -0.29989435110668   -2.58863249791717   -1.10678256527633
O           1.25039339546235   -2.22797180212254    0.71040658857102
O          -0.91402393473152   -1.18700061649856    0.78459815272791
O          -0.74332598453783   -3.59822217753018    1.05100013747946
H          -0.49153508438899   -4.29271312962360    0.45164436868794
O           1.27290133355849    1.39901256714037   -1.31382783034487
H           1.82750472540766    1.70120548524980   -2.03395471710630
O          -2.38327777240212    0.47703078701424   -0.75797193377842
H          -2.03313732159664    1.30301678817614   -0.39541968259874
H          -2.04363363034720   -0.22286554739266   -0.17147274957884
O          -0.73411130839884    2.63262657734877    0.08440209378074
H           0.00013507685540    2.27076182889490   -0.44999393345462
H          -0.93133015002628    3.50459855199236   -0.25946078654566
O          -0.32427269972242    0.94656779295164    2.27268312411747
H          -0.64965234088393    1.65713880949878    1.69969169387180
H          -0.71632468151962    0.12431256837987    1.91392608044174
O          -0.35825209618600   -0.24949876536386   -2.34576422424383
H           0.64241881226551    0.70560256564195   -1.73262628278072
H          -0.27017394575077   -1.16594067399226   -2.00816228139702
H          -1.22324623583993    0.04793271792826   -1.98279533526862
N           1.88683890289644    0.23411794365480    1.06223790746464
H           1.68322409482746   -0.81652872420577    0.93081533143601
H           1.81342573689871    0.69300495253818    0.13214359627166
H           1.09433532007753    0.60404499154440    1.67630182045141
H           2.79780099172935    0.37695469071399    1.48283526538403
