    26
        -50.46361260  Gyration_radius:  2.4925843465 Dipole_moment: 6.654
 S          -0.02206963272758   -2.35322183779799    0.01013642498564
O           0.47023216897526   -2.44374806492301   -1.34387675895043
O           1.05951108795633   -2.22389606069095    0.98818614630907
O          -1.02955372288946   -1.32541638025482    0.21141294367626
O          -0.73552839974842   -3.73715914198795    0.31343346928429
H          -0.17502219127069   -4.33790378167885   -0.16579350122203
O           1.55197664093506    1.62038094202116   -0.51665556944076
H           2.32287525174764    2.04016285201500   -0.90003130596349
O          -1.88102299906281    0.42653956021536   -1.66325219528591
H          -1.80450393237972    1.22115209039139   -1.11649501705470
H          -1.74739228549913   -0.31862984378216   -1.05001601387086
O          -0.97328828452309    2.55494503537943   -0.01225174681333
H          -1.09694675388649    3.45147189468244   -0.32573444363610
H          -0.04934244888525    2.30449957991605   -0.21032975021149
O          -1.34589725723262    0.64069186992925    1.98584701978333
H          -1.47296184696627    1.39566727208732    1.39165977796222
H          -1.46295789259566   -0.15309174602376    1.42481631984485
O           0.68726111232137    0.02038047792635   -2.28692663016569
H           0.72215045005358   -0.92339106999700   -2.02280000482726
H          -0.27624540399885    0.21951587412711   -2.30535587395837
H           1.23172776331243    0.94877356013779   -1.22417362049454
N           1.23019252637340    0.21129116786189    1.78326027033941
H           1.21161641459728   -0.82590395030662    1.48954156042400
H           1.50596890279247    0.77454952986970    0.95389103895427
H           0.21915516411211    0.45676305542858    2.02748292705085
H           1.86006560854127    0.35557712560817    2.56402454323993
