    26
        -50.46254375  Gyration_radius:  2.49151867769 Dipole_moment: 7.195
 S          -1.21810705770385   -1.67634380838700   -1.15913174322642
O          -1.29467193725320   -1.23288448237138    0.23352201990384
O          -1.76245973182024   -0.64014035079781   -2.04138452094387
O           0.08843589157071   -2.12684477685702   -1.54413324759489
O          -2.20450887044089   -2.90729203171813   -1.28663549305859
H          -3.04513347563460   -2.50276527767269   -1.09970607760631
O           1.84941144351932    1.29369219834661   -0.53448148352212
H           2.62626192268489    1.63682396304643   -0.97727038967416
O          -1.68611118938047    1.21403345226563    1.20021799098663
H          -0.90395539045496    1.35117697656603    1.75504672683561
H          -1.68936790345436    0.25672991283959    0.98344900465942
O           0.77630227726505   -1.36128528521451    1.96241880260893
H          -0.01780521451797   -1.47589264969358    1.40770894114541
H           0.77498850887214   -0.42924970757058    2.22272576822825
O           0.95553202052350    1.47312402815668    2.04642075546325
H           1.33762712391655    1.47638657118999    1.14646256872358
H           1.62118991202529    1.82855139993105    2.63630973970396
O           2.21403292474293   -1.19723996429301   -0.27560053215627
H           2.00848978522080    0.27721786235765   -0.45764087793135
H           1.88334106772035   -1.38377747670126    0.63351439673144
H           1.54829706505880   -1.62840858892622   -0.85108965824231
N          -0.76330787219526    1.57894162283356   -1.21954367660192
H          -1.15581562899596    0.67606805219434   -1.65608046411985
H           0.26832204432935    1.49644143436303   -1.10261387306629
H          -1.01068207641565    2.38774357877125   -1.77858550122098
H          -1.20030564917220    1.61519334734741   -0.24389914602885
