    26
        -50.45538144  Gyration_radius:  2.5657550669 Dipole_moment: 4.109
 S          -0.49061252205737    0.11068282322550    0.92427747252786
O          -0.07192666614002    0.24455188733840    2.40473050247381
O          -1.40736940165086    1.16875580872053    0.57704535995365
O           0.75674045301434    0.20883902296169    0.12631017130727
O          -1.04923175562205   -1.23029494202920    0.76921441802651
O          -0.49787563019089   -1.34649884293970   -3.08375837897930
H          -0.87946038675194   -2.15824148016671   -3.42419111410940
H          -1.21040495227071   -0.91508619990770   -2.53521452371340
O           0.33725344415978   -3.34126136593201    0.21154500484811
H           0.82251593884874   -3.60933847724654    0.99398107243203
H          -0.28973903120314   -2.62954199563044    0.50444516614275
O          -2.29714307325413   -0.43090359980391   -1.42580744840384
H          -2.06718774924538   -0.95129289120679   -0.63520607035892
H          -2.23103065561961    0.47642067967391   -1.09878547729276
O           1.35649854037484   -1.63878639037396   -1.37904692100210
H           1.04987833097660   -2.43635413258710   -0.81535274292488
H           0.66762468185128   -1.53333934489974   -2.14401343210089
H           1.15638289912393   -0.79862732762391   -0.73292004632779
O          -0.34679182791375    2.77208545961437    2.45634423028826
H          -1.03358217317904    2.60791618169381    1.79235745954041
H          -0.13229937458123    1.23568189577667    2.59924591496389
H           0.45611613917915    3.01307110130698    1.93108799661067
N           1.68933254962090    2.88270927350197    0.70206084159620
H           1.44117730638343    1.93963985696448    0.40426760733269
H           2.66189228569587    2.87062312400059    0.98233325414927
H           1.60924260039952    3.48858986561814   -0.10495029704914
