    26
        -50.46862858  Gyration_radius:  2.47490912186 Dipole_moment: 4.028
 S           0.41168824370718   -1.55889006909034    1.56369963347352
O           0.71552904337729   -1.72478794412495    0.13208875053699
O           1.48804939629345   -0.88684509329071    2.26163536533581
O          -0.89343433805363   -0.98726366030088    1.75282381239467
O           0.37439708750153   -3.03103641730652    2.15860081732642
H           1.28962145618070   -3.16158992773934    2.38338380596949
O           0.23323416835017    1.09413496508687   -2.48904270268519
H           0.59257375862419    1.39313042142404   -3.32444079968014
O          -2.70517049221540    0.28140598596493    0.26754793784323
H          -2.26252385016722   -0.15978405560575    1.01670608180261
H          -2.24323224462537    1.14847767919435    0.18727975526494
O          -0.94889057487412    2.24058165583840   -0.15590856017846
H          -0.59980748932305    2.04676817623433   -1.03629371262113
H          -0.22827287233138    2.03593579774652    0.46437463540615
O           1.22133386087265    1.55635691649012    1.43103157252312
H           1.40524458086556    2.15350034396049    2.15829684053681
H           1.29331065008892    0.64279832890843    1.80247728749402
O           2.11750622734539    0.33166907070760   -0.87191650023468
H           2.06055167404157    0.94313159651485   -0.12183575789809
H           1.75792235734749   -0.50952990522456   -0.52651257080611
H           1.01668022852058    0.83320214079388   -1.91926365159691
N          -1.22898358686806   -0.95346754455214   -1.45437709333261
H          -1.96009902319168   -0.47464560564006   -0.79955702962401
H          -1.64523032680663   -1.68132509556522   -2.02327303599881
H          -0.78291641385948   -0.22017927565681   -2.03794418462459
H          -0.47908154078229   -1.35174846473960   -0.81958069661921
