    26
        -50.46253655  Gyration_radius:  2.460382722 Dipole_moment: 4.987
 S          -0.05419049407299   -1.53180959252234    1.39067765776788
O          -0.98890919371251   -0.53152338453669    0.90063216001474
O           0.07190187800362   -2.69591973408211    0.55392375430729
O           1.22620134719101   -0.91638994500862    1.73351385728948
O          -0.67779328652545   -2.03948613092856    2.76462032070779
H          -0.26801370435686   -2.89271922577876    2.86306671679745
O           1.43958001723712    1.23182976468106   -1.46826467070340
H           2.10277745805810    1.42015502965361   -2.13315276392844
O          -1.37768360866259   -1.30418948627942   -2.66063194726714
H          -1.83397210817307   -1.91020826691367   -2.07336411555374
H          -1.56970755559604   -0.40491015743775   -2.32939777586498
O          -1.37472178995128    2.03555745310781    1.48296154162564
H          -1.74383719969814    2.25918816542063    0.61914547225156
H          -1.45631941808743    1.06245940504864    1.53147019841078
O          -1.37637210318515    1.04433439156745   -1.25152569197154
H          -0.47293722490671    1.29125509644702   -1.49296670598996
H          -1.28342461342708    0.41678602198180   -0.50986506296629
O           1.07213348668194   -1.32001236831618   -1.50380035348105
H           0.29174263354495   -1.40670688006767   -2.09302891241642
H           1.34656826840472    0.22947697895151   -1.45377842944264
H           0.85024500340488   -1.85746852722073   -0.72228093374934
N           1.23140618784993    1.59373269741400    1.17892850547645
H           1.26689623728953    0.55526662430846    1.47100806608684
H           1.42495675608593    1.60619773410434    0.15296126037673
H           0.24240925629152    1.92660232021394    1.35167072334766
H           1.91106376032914    2.13850200618048    1.69747712887524
