    26
        -50.46926235  Gyration_radius:  2.5492238842 Dipole_moment: 4.551
 S           0.40462404837847   -0.13641867018593    0.36523096651280
O           0.79461756117304    0.20649930508690   -1.09960172912195
O           0.75896764628313    1.05009270752127    1.13382589600967
O          -1.06169113937898   -0.32183115572410    0.36899480152790
O           1.09289447872348   -1.33360749175566    0.77722822513684
O          -0.97832748183027   -2.87364376260539   -0.41377666462629
H          -1.16187926157174   -1.97403188208137   -0.08585514222579
H          -0.29952936912301   -3.21586254047637    0.17517500119646
O           0.26338988479183    2.88912320951248   -0.69832188440665
H           0.64963609831636    2.34368162825796    0.02144739251651
H           0.51836937701491    2.42897164784625   -1.50336918064132
O           2.70327798738732   -2.71124576384281   -0.82885415914520
H           3.57141938418116   -2.30715351197939   -0.80141878801066
H           2.17138666614585   -2.26212064443022   -0.13874484057944
O          -0.97041055925668    2.14457080821046    2.82816038887448
H          -1.85956399639026    2.29274659738693    1.38685480808579
H          -1.14917374497684    1.51361065871204    3.52710954942955
H          -0.20322414448822    1.78653777841203    2.32874320514908
O           0.61269116631129   -1.96999970135723   -2.35579583214935
H           1.44882551369237   -2.38255732724028   -2.05946791155988
H          -0.08711951221143   -2.42276110739879   -1.83111817699956
H           0.71125812691054   -0.65162931073973   -1.66399485033352
N          -2.00062696915887    2.06114859816574    0.37678281776003
H          -2.94108869195863    2.25583997833050    0.05231685763710
H          -1.73440149575052    1.01815545205523    0.30801424338932
H          -1.25432158320131    2.57188451034522   -0.16956499342206
