    26
        -50.46361281  Gyration_radius:  2.4926301386 Dipole_moment: 6.644
 S          -0.16610518508702   -2.33899058374431    0.20414907634550
O           0.32335374774324   -2.57056124921490   -1.13404158674508
O           0.91864875687747   -2.19374083827379    1.17642227212202
O          -1.11029521275288   -1.23953017352100    0.31249323332784
O          -0.96229198586515   -3.64807013026618    0.61484588374408
H          -0.44233701215476   -4.31785218975161    0.18367900536341
O           1.65042211300571    1.47563543577192   -0.63487275687216
H           2.44694554996677    1.81464657054661   -1.04489139743612
O          -1.84495680890299    0.39965922702670   -1.70747085652964
H          -1.72190846117958    1.23073249107539   -1.22744198157049
H          -1.75940729789611   -0.29892889400450   -1.03375169562826
O          -0.81505814959600    2.59922600793773   -0.23156516798397
H          -0.88330899557093    3.47138359321427   -0.62150798460819
H           0.09284814201368    2.27803700079638   -0.39965030015756
O          -1.31140459839214    0.88360056616355    1.91473708936878
H          -1.39000374675495    1.59296100755308    1.25916322259834
H          -1.47480999597255    0.05445620912995    1.42046416334207
O           0.69565511529236   -0.21037686389019   -2.27426455286959
H           0.67184914962226   -1.12952705241877   -1.93329415448479
H          -0.25395641589033    0.04445318297373   -2.31684182753184
H           1.29235014974099    0.76827920657547   -1.28714810836480
N           1.23439209881780    0.28375253471468    1.77055184614175
H           0.23945367063459    0.60948062920543    1.98509902488668
H           1.54725313877797    0.75889095289748    0.90022287680669
H           1.86915319780620    0.45353649336387    2.54218916359299
H           1.15351903572342   -0.77115316386399    1.56272551314415
