    26
        -50.46361241  Gyration_radius:  2.49255476344 Dipole_moment: 6.657
 S           0.09602449229970   -2.35122364075471    0.00959430362510
O           0.62797876160822   -2.41518778826283   -1.33085602881380
O           1.14351631357542   -2.16928497064722    1.01596030407898
O          -0.96659194944257   -1.37535810856472    0.18403323971552
O          -0.55506272042706   -3.76950241368122    0.29413453771434
H           0.04960591780816   -4.34139912939372   -0.16639187889065
O           1.48171741756222    1.69640499043972   -0.47594438748624
H           2.24095837800520    2.15429409960495   -0.83841832171299
O          -1.85598045584185    0.33396343292904   -1.71249386963989
H          -1.83379404427957    1.13073318973563   -1.16400105506952
H          -1.70131863887342   -0.40427537915739   -1.09587258636346
O          -1.09944846944390    2.50290423755276   -0.03781432160978
H          -1.25936424963203    3.39269971789113   -0.35393053482752
H          -0.15931908985124    2.29917051756642   -0.21184378641471
O          -1.42850770358156    0.56997768132712    1.94959094680713
H          -1.57749656075518    1.31835841290612    1.35215992193450
H          -1.49073325512050   -0.22787948883062    1.38564081425674
O           0.74505437508218    0.05763080083042   -2.26852054357084
H           0.82030377623963   -0.88346159085307   -2.00324462041013
H          -0.22633811291906    0.20830005081018   -2.31245910943515
H           1.21424398248224    1.01067315769008   -1.19185785392788
N           1.17032565552480    0.27049889938247    1.81479232555685
H           1.21157556653384   -0.76598914870145    1.52096214352478
H           1.43899055404841    0.84773044863178    0.99265448460572
H           0.14218289132163    0.46472994756662    2.03239576956623
H           1.77147716820327    0.44549208402109    2.61173010693740
