    26
        -50.46245849  Gyration_radius:  2.5303784742 Dipole_moment: 4.462
 S           0.18405048827700   -1.95011692150909   -1.10021564845929
O           1.02915013191094   -2.15076049926521   -2.25643055209407
O           0.91084060089500   -1.69757878154427    0.12244985194036
O          -0.82136975963907   -0.90403732170532   -1.33868320932702
O          -0.63034212607705   -3.29191915653977   -0.88089327226802
H          -0.91131245550083   -3.54194433045182   -1.75647001421611
O           0.60390790233774    1.55969841069983    1.85386493543685
H           1.38975981070938    1.60402349222983    2.39895810104092
O          -1.58814281001803    2.65674982743704    0.56716874888406
H          -0.87011464897255    2.43449077465982    1.18039843361678
H          -2.22127311738521    3.17765802060546    1.06308827344949
O          -2.51914695981310   -0.01223988627485    0.56277891167993
H          -2.35463638497029    0.93858025192996    0.45765823510123
H          -2.08420108711193   -0.43124588822408   -0.19961256779651
O           2.77906840614021   -0.35509861415623   -1.49133769405098
H           3.01403710260295   -0.77884018976832   -0.66012821989229
H           2.24036485289426   -1.03795358609158   -1.95487934663987
O          -0.49457913101264   -0.71551428933152    2.17075525414969
H           0.02573275007283   -1.22436404331936    1.51655107825424
H           0.16418184339603    0.66217089631911    2.07028062874793
H          -1.36842904597293   -0.56707742309897    1.74338361367220
N           0.70772300966001    1.15252241667841   -0.81754747216420
H           0.49011384313254    2.00788752840379   -1.31985986368424
H           0.72295284855699    1.33705177353932    0.21582393747352
H          -0.02260483285380    0.41166611809392   -1.02541986057308
H           1.62426875874214    0.71619144068193   -1.12168228228027
