    26
        -50.47250309  Gyration_radius:  2.48730811232 Dipole_moment: 2.879
 S           0.26859804364709   -2.23871310410509    0.24416257311200
O           0.63775186703070   -1.88389211333657    1.60910362617447
O          -1.15992618513933   -2.44665808892116    0.10329258633208
O           0.81577100251121   -1.30855252723365   -0.72487092260339
O           0.94893731147631   -3.63766700722800   -0.05546258113090
H           0.43699543080375   -4.21311440913986    0.50238703260887
O           2.35141414337394    0.90596421843669   -0.56016974487483
H           1.99801335969025    0.02779083605922   -0.79397376908832
O          -0.99436148265854    1.88506903006955    1.02221561051739
H          -1.60345504655697    1.16614950196552    0.76804889033995
H          -0.64469744399604    2.23406128573355    0.18249308346112
O           0.16970384720008    2.34832938686774   -1.43048711725026
H          -0.25709411004527    1.51757500580174   -1.79137785822868
H           0.09233874700468    3.01213948303243   -2.11591362051510
O          -2.48357240189388   -0.22627975016756    0.13122717680485
H          -3.37755415539534   -0.42702126081132    0.41202057972438
H          -1.98904045270028   -1.08710086721445    0.15821567812734
O          -0.93761906234132    0.10642652308689   -2.16025898250980
H           1.72827480030539    1.53946215780858   -0.96082340773478
H          -0.28468697895322   -0.51686476546444   -1.78291572731293
H          -1.70709481385883    0.03186634017657   -1.57689383281886
N           1.20988597382274    0.65271796338302    1.79351731512668
H           0.30228444274071    1.17988859564700    1.62925135327701
H           0.99536658739269   -0.38655754247466    1.79730253922647
H           1.82501459514811    0.83006982722804    0.94282823906876
H           1.65875200142699    0.93491126079461    2.65708126022090
