    26
        -50.47250313  Gyration_radius:  2.48726256402 Dipole_moment: 2.884
 S          -1.05637325985084   -1.76689525042206    0.95159942283992
O          -1.46507243395653   -0.94372366213187    2.07365153762466
O          -1.96132548105769   -1.63263820703032   -0.18351302920076
O           0.32857942951089   -1.57358429231898    0.56695024494757
O          -1.17181784498557   -3.26897428337512    1.44148303140616
H          -2.05057996264640   -3.27548293350867    1.80506758151883
O           2.25246792583328    1.42555659090252   -0.69496950425885
H           3.09152444325852    1.88564658345144   -0.66688336984681
O           1.58473380866334   -1.02750286493125   -1.75937275342098
H           1.99703162882872   -0.18276356605388   -1.50146850150697
H           1.30978367751067   -1.43706565021273   -0.91824279098228
O          -0.97600258742665    1.56475882340208    1.68509607938155
H          -1.20395523564283    0.60889009953649    1.82872445245444
H          -1.57617235513260    2.06502773829314    2.23996286427316
O          -0.39765333939932    2.13946682574070   -0.92341188512454
H          -0.66811856506687    2.01918606715001    0.00657342159091
H           0.57380503530596    2.06555855330631   -0.91960960657666
O           1.60014715361396    0.50911722369754    1.65412060138976
H           2.08291385683241    1.08846878073927    0.23255247232545
H           0.83195945925463    1.04413873632230    1.90227159265839
H           1.22069070665993   -0.35101211898062    1.38320141698237
N          -0.88658987215042   -0.18876533896793   -2.06922328780011
H          -0.80808758215875    0.79908285407543   -1.68634613570375
H           0.10510444846740   -0.57011864944889   -2.13772237884807
H          -1.38872510351496   -0.78600254219567   -1.34998466704142
H          -1.36826796073450   -0.21036948705587   -2.96050682906972
