    26
        -50.46489353  Gyration_radius:  2.55382884255 Dipole_moment: 4.634
 S          -0.75506210648465   -0.25215409628836    0.22348066091321
O           0.22860778987594   -1.03416716547394   -0.52599621309902
O          -1.36150382509593   -1.12636722372893    1.32135929633035
O          -0.09357623482899    0.90419494135052    0.87011158556747
O          -1.82583816787555    0.21854444633239   -0.63185401686907
O           0.60804526984522    0.88857616632157    3.44885418511970
H          -0.17807455766795    1.19340171959822    3.90517432786094
H           0.42376380822365    0.98551065133000    2.49239678533362
O           2.24513806741208   -1.99459643231884    0.87551397406083
H           2.42392801616636   -2.86624253911058    0.51879790499710
H           1.55724730508608   -1.59899350375368    0.29610948631391
O          -1.80352007004607   -0.04164410579184   -3.25631361626299
H          -1.91511484458401    0.02555008382750   -2.28060928689911
H          -2.20135136186361   -0.87624111184433   -3.50743443465849
O           0.77341818472489    0.35150159789921   -2.69438877163734
H          -0.04939432842595    0.15953527042451   -3.19274215248485
H           0.34792818759158    1.57775069861173   -1.96176756962946
H           0.73762756299303   -0.27546690659506   -1.93512233492993
O           0.51199866758091   -1.73831042594545    2.89091199963870
H           1.26679750420610   -1.90163106001988    2.28235436991367
H           0.68398780074188   -0.85997261533567    3.29168978636077
H          -0.61769846675354   -1.42870678158068    1.97749585528561
N          -0.12823816729605    2.30016340470078   -1.28056574535873
H          -0.05871787467209    1.83530458584396   -0.30907318578097
H          -1.12041518710285    2.33432828689144   -1.51015112419510
H           0.30001699824991    3.22013210465457   -1.30823175589085
