    26
        -50.46911733  Gyration_radius:  2.49231804691 Dipole_moment: 2.690
 S          -1.76215462513187    0.82089885326691    0.35208403574374
O          -2.57271468783102   -0.30098469530843    0.79567231775663
O          -0.44286700579479    0.79106789973873    0.97356777614714
O          -1.69548614375824    0.96506250096867   -1.08473622362189
O          -2.48248559958787    2.12929060704825    0.88698388508915
H          -2.78203211152059    1.86886557837258    1.75208380919059
O          -0.06113478128435   -1.01840893893327   -1.87657573306555
H          -0.78215235923840   -0.36305606330230   -1.87241306275578
O           3.18223219445900   -0.89026091233565    0.66020158227415
H           2.77454644580678   -0.17694291869626    0.13542599608047
H           3.58243346337468   -1.49377851860718    0.03292851869082
O           0.10509628548088    2.86582734861422   -1.69948663921933
H          -0.61928372659807    2.22253426164024   -1.57403005607130
H          -0.18064589605317    3.67334575075974   -1.27084358020626
O           0.91005145295054   -1.31012330613145    2.08107905754084
H           1.81100534396037   -1.23259959184980    1.70540717449580
H           0.50710550784001   -0.43355272037516    1.95904922120655
O           1.57575522796928    0.78373890104301   -0.74243679971435
H           1.42574364615127    1.59659947673213   -1.25259045884250
H           0.88694099624213    0.82846571992778   -0.04328109058803
H           0.72297631027182   -0.48376610510114   -1.62618068232570
N          -0.82405362353942   -2.20537651173684    0.34052675777523
H          -1.63207614854772   -1.56727522797734    0.57072384641685
H          -0.46423622365923   -1.88007964492101   -0.60940712246838
H          -0.07280648422919   -2.01118909465682    1.07800858621440
H          -1.10975746773543   -3.17830263819387    0.32823888434062
