    26
        -50.46361293  Gyration_radius:  2.49262013777 Dipole_moment: 6.641
 S           1.40394142941656   -1.38445968789420    1.28556795340778
O           2.35303577869390   -1.56026851111698    0.21212949086606
O           1.65845926828163   -0.16910424737152    2.06076961542176
O           0.01297517615345   -1.45251307788137    0.86989440280894
O           1.62985143554523   -2.60251754943263    2.27643440571162
H           2.57045278629404   -2.72317913180789    2.20224712598183
O           0.29044340276960    1.90023363596569   -1.26975719595130
H           0.72153204443129    2.57390742168852   -1.79683999176529
O          -0.84859509648627   -1.71413898074645   -1.67882922083133
H          -0.56120818953470   -1.83470436208106   -0.75572644381416
H          -1.50309973651446   -1.00208877652738   -1.64919532932530
O          -2.20148188234886    0.77225194363589   -1.42579814107269
H          -2.69608374541480    1.09027836404244   -2.18182895097965
H          -1.33982040987474    1.23386305223441   -1.42952060661704
O          -2.12596240116432    0.08733200354417    1.28065344043746
H          -1.49306489722083   -0.65840222146245    1.23790733163441
H          -2.42301796073198    0.22456071377979    0.36851095426600
O           1.40291035510779   -0.29033986950614   -1.90787272040300
H           1.88790253229374   -0.72332123690838   -1.17376714808808
H           0.63430900819479   -0.88592154557008   -2.05942942999574
H           0.77171362626834    1.02494896300844   -1.50620448762128
N          -0.03065312985338    1.65357111088488    1.41627304048854
H          -0.96777816141520    1.14183248081545    1.45959548528791
H           0.15927984703712    1.89262209107638    0.42233544880635
H          -0.01246288130890    2.47339349252429    2.01185046095990
H           0.70642178138100    0.93216390510616    1.73060051038577
