    26
        -50.46361283  Gyration_radius:  2.49256186384 Dipole_moment: 6.643
 S           0.51985577388161   -2.29246609940138   -0.11630170339820
O           0.99444334075801   -2.19798278907850   -1.47639400506167
O           1.55985935174967   -1.96545804447833    0.86057543345808
O          -0.69403781366229   -1.53749659895149    0.14569314585191
O           0.15107412740489   -3.81767969430903    0.11641664517839
H           0.81919892299747   -4.24632994368520   -0.40781023406406
O           1.12888474533710    1.96028997436575   -0.43570158619383
H           1.77636850039241    2.56524887692245   -0.79937646139213
O          -1.95632931192667    0.06484262414931   -1.62784786799001
H          -2.05535093168840    0.82624985371376   -1.03901146018637
H          -1.64454760800510   -0.66015187535529   -1.05652076449338
O          -1.53523180598290    2.25781751742244    0.12998974137307
H          -1.86836863790274    3.11471183262739   -0.13859002212650
H          -0.58180117300986    2.23856471858470   -0.08495253444979
O          -1.42210240636578    0.20966281908506    2.02481102157366
H          -1.73048759803010    0.94418691071743    1.47301056747028
H          -1.36273301860702   -0.55988986813427    1.42243072678666
O           0.62505120538800    0.29597840660088   -2.28444929381933
H           0.95974160440317    1.26980783225704   -1.17642170677268
H           0.88045916862154   -0.62672578385735   -2.07230121243444
H          -0.35868951465879    0.26803742698035   -2.28731507492026
N           1.17950267486636    0.39884129100811    1.78641803909433
H           1.39493267284763   -0.59798087869419    1.43676172936614
H           1.30391371932563    1.05255485571026    0.98745068152000
H           0.14356149502607    0.39132244905296    2.04879694970722
H           1.77283249684005    0.64404419674714    2.57063926592292
