    26
        -50.46911761  Gyration_radius:  2.4918127399 Dipole_moment: 2.699
 S           1.63253607607646   -0.58065842605147   -0.94707825131249
O           2.67527322279882   -0.42836139816849    0.05391899978176
O           0.44238616371503   -1.19810329935839   -0.37293756448304
O           1.33266173782357    0.63368115171510   -1.67166658682142
O           2.19539978721865   -1.60137635720031   -2.02334508126939
H           2.66560166760626   -2.23493460447322   -1.49101199531698
O          -0.04963377545334    2.13357703885186    0.08069858839414
H           0.54574724353235    1.87917719365086   -0.64741541870003
O          -2.85666337813260   -0.36602045471510    1.74615806201532
H          -3.23329502352445    0.44388065757305    2.09268260251821
H          -2.65634565636962   -0.19752717241890    0.80708447917555
O          -0.82572276531186    0.22031366712579   -3.22164543564050
H           0.00497204137229    0.44124003858911   -2.75756254441465
H          -0.61698925358838   -0.51101435492532   -3.80385772549216
O          -0.36581755618693   -1.32212945365713    2.23518600114578
H          -1.31172494899316   -1.07141654073829    2.19907009893459
H          -0.13678524259566   -1.58340255337318    1.32690725090678
O          -1.77659340742965    0.21893385916534   -0.67065265020440
H          -0.86559351846113    1.62434674491735   -0.11517076647840
H          -1.83853631049680    0.31787554356387   -1.63502172644249
H          -1.01018421443770   -0.38514730007045   -0.55727719839112
N           1.21932520763614    0.73115550906560    1.90567494322035
H           0.67435577263859    1.41193116796026    1.29150457775882
H           1.93488940298032    0.28656364662723    1.27062181114116
H           1.65789252595774    1.19478753129789    2.69377160241540
H           0.56284421168042   -0.05737185498200    2.21136393764214
