    26
        -50.46254372  Gyration_radius:  2.49162539578 Dipole_moment: 7.194
 S           0.39043417027282   -2.27822330805736   -0.54429549421643
O           1.49238023307211   -2.29649715999060    0.42201682927231
O          -0.77823427163459   -1.62616671913592    0.04812245628655
O           0.75868739768575   -1.73956917477289   -1.82193417769084
O          -0.01106084008159   -3.79328538543952   -0.76271835537407
H          -0.15301521142821   -4.08777891444271    0.13078573450544
O           1.14613127504307    1.96942506642610   -0.43354476765587
H           1.76644945767938    2.60411499293333   -0.79369217049495
O          -2.19309219800787    0.31815129929356   -1.18157432737590
H          -2.13099670548199    0.97779078368899   -0.47619426214925
H          -1.80575344577797   -0.49586804194703   -0.80903273345469
O          -1.32036443809637    2.23800713269199    0.72249144476151
H          -1.67816077237268    3.11961435932058    0.61185654812217
H          -0.43022905738862    2.23606530450772    0.31801570191925
O          -0.92753632916728   -0.08413605069059    2.21075099610646
H          -1.03917455761293   -0.74955907067808    1.49795720356519
H          -1.30894588731948    0.73524561187612    1.86210608731292
O           0.12997717795689    0.76018072690195   -2.41085192785640
H           0.44799820542529   -0.16506845148859   -2.35440548172230
H          -0.82266514421968    0.68807973940338   -2.17025818210508
H           0.75962920680282    1.47441384763569   -1.25209376712033
N           1.57000547808546    0.05698401416083    1.44799202564126
H           0.61530828596698    0.06747201330452    1.93033951162221
H           1.63579476857881   -0.92222704021468    1.00446137267265
H           1.55673858085098    0.78350671867424    0.70185771507309
H           2.32969463121017    0.20932768603313    2.10184202037999
