    26
        -50.45476207  Gyration_radius:  2.60442434146 Dipole_moment: 5.774
 S           0.97984229598657   -2.40657690772255    0.41203054100331
O           1.01323087525660   -2.51191521199027   -1.03203726860457
O           2.08682153441710   -1.58434038794284    0.92486944309673
O          -0.27757003654773   -1.95232464997103    0.95542843257034
O           1.23205696903924   -3.87628856154443    0.96018978208198
H           1.85199340736261   -4.21925666073135    0.32410302608241
O           1.11513670244717    1.54772997849998   -1.31512171325480
H           1.92425416692558    1.56006505848625   -1.82709723635063
O          -2.19056217141024   -0.51030094198694   -0.16545494553586
H          -2.16484047892440    0.19142344416608    0.49902068859802
H          -1.64969648711649   -1.21965009210792    0.23405069594837
O          -1.42839373562644    2.56587196396927   -0.91981402062948
H          -1.92270040588300    1.88220413473319   -1.38273226720881
H          -0.50127530225690    2.43961793432231   -1.17714725033809
O          -1.48377886623545    1.64477712071489    1.56526915322548
H          -1.48719172039263    2.12154076086721    0.69881335026394
H          -2.13628331452508    2.06888592679066    2.12250822265136
O          -0.27693125957088   -0.44397293740593   -2.05012229075964
H           0.21429050826127   -1.25744954279847   -1.79939848658321
H          -1.08277139607124   -0.46471698420732   -1.48881195098121
H           0.58298157365843    0.74315580984303   -1.65827567981793
N           1.11671031527823    0.74918258882983    1.24197725402963
H           1.50372756687482   -0.27220652294103    1.18281637369540
H           1.18103813652082    1.14916149010738    0.27028287113425
H           0.12800320644146    0.76123269112775    1.53077708530126
H           1.67190790607678    1.29415050883498    1.89387620038905
