    26
        -50.45476205  Gyration_radius:  2.60452510234 Dipole_moment: 5.776
 S          -0.49181409604718    2.25353295530904    1.26581468914562
O           0.76694726575062    1.85905144196088    1.91743304079852
O          -0.25773994786732    2.88689305710699   -0.01552413957461
O          -1.41015987309454    1.14081355998019    1.23057110865532
O          -1.13530083796846    3.37268855139816    2.19186059307771
H          -0.67719666076833    4.15519498421102    1.90127700676033
O           1.96771158708306   -0.31563821624200   -1.18189239834298
H           2.74442090453273    0.20870217896429   -1.37866936777177
O          -0.67824054734367   -2.56912672488867    0.54432483960509
H          -1.10647698969135   -3.40387509565146    0.73386907663166
H          -0.28010380563856   -2.64476231263925   -0.35782894783400
O          -2.06914869175604   -0.45510573799319   -0.77310767241445
H          -2.05300263159895    0.21455724422170   -0.06133717461274
H          -1.80572539325488   -1.26803868560028   -0.32104804656923
O           0.28849017443993   -2.38971819315501   -1.91744555442684
H           1.04676619503327   -1.79388078293010   -1.80934698551679
H          -0.39466524568339   -1.86646785378238   -2.34822006389718
O          -0.09223286822089    1.00380760978081   -1.86036798278022
H           1.16915083990705    0.24740625798808   -1.48784585553217
H          -0.87922220701107    0.46919077029645   -1.61607589779171
H          -0.14418951258855    1.79281598928941   -1.27664830343703
N           1.09873748961746   -0.59840501487289    1.33627861585927
H           1.53310579257572   -0.54260422534581    0.37891424830026
H           1.72779019879310   -1.05071991803263    1.99197024259431
H           0.90764847872999    0.43186791888736    1.65044704571321
H           0.22445040207956   -1.13817976819538    1.26259787336252
