    26
        -50.47250313  Gyration_radius:  2.48736904934 Dipole_moment: 2.880
 S          -2.17003403088373    0.65935626875132   -0.03057931596518
O          -2.00516092393972    1.33403210866588    1.24270805017119
O          -1.73578890413768    1.48771487100184   -1.14890998248883
O          -1.56928529396734   -0.66026572263945   -0.06763187426662
O          -3.72807386537423    0.43929438998542   -0.21435166288105
H          -4.05841405731148    1.31275826107923   -0.03414299731326
O           1.98793054108185   -1.87977298574963    0.32317646017578
H           2.54246485813500   -2.57743869645674    0.67286932064439
O           2.20875937422340    0.84182083417081   -0.03711739664846
H           2.32804711591456   -0.11552347828068    0.09866734879027
H           1.65096393937054    1.13934026413841    0.70630212044625
O           0.46913613081417    1.44263379775720    1.98393601814312
H          -0.47958832486854    1.44112912794857    1.69043105329407
H           0.55709481478763    2.18204080425357    2.58720878056476
O           0.15204009748278   -1.90721561453226   -1.73207764615602
H           0.86573585220369   -2.08176332182624   -1.09149849968592
H          -0.62324596864239   -1.68164678138604   -1.18543535001135
O           0.04450143705630   -1.30829959701119    1.96054333450013
H           1.25956654745137   -1.73325146005137    0.99432994242136
H           0.26310254173866   -0.41727540500815    2.27090771110735
H          -0.67067015639676   -1.16980357503638    1.30745958893582
N           0.55332969746159    0.66562911506566   -2.08694685365815
H           0.43548172395511   -0.39138152602007   -2.13592523563635
H           0.82499121942488    1.06328959122989   -2.97853045042788
H          -0.37854106149265    1.05680273557788   -1.76335733874040
H           1.27565666592254    0.85779600436921   -1.33203512532537
