    26
        -50.47250313  Gyration_radius:  2.4873728591 Dipole_moment: 2.880
 S          -1.72744051306106   -0.89757972121026    1.16416859823877
O          -1.89710233904035   -1.92918299516278    0.15887688708170
O          -0.69002631427732   -1.23978504226392    2.12963183143302
O          -1.53345043053688    0.42704277434341    0.60611463929491
O          -3.08943403624276   -0.84025587702470    1.97123441659965
H          -3.21908690283729   -1.75984511583519    2.17635777903953
O           1.12917939928507    1.91476772547118   -1.62775878574211
H           1.29742091800859    2.52437853684964   -2.34649131545765
O           0.02622648007594   -1.94324477250941   -1.56842588587913
H          -0.69707439177424   -1.97206786529352   -0.88853150188438
H           0.06646109193823   -2.82229655875598   -1.94792795304154
O           0.30002753375601    2.37667680092473    0.95958922935861
H          -0.53627892853341    1.87964611451791    0.89374394202366
H           0.63464197694852    2.42265792762702    0.04521988233963
O           2.18661152240651   -0.47617890491359   -0.76106049168149
H           1.48454971765314   -1.07609144493571   -1.07661551805510
H           1.98493471771525    0.38833942655927   -1.16245971455396
O          -1.06967723792522    0.57502702576232   -2.02080290725841
H          -0.76062005797158   -0.33046861453242   -2.17115814382162
H          -1.41017397087331    0.56667561068216   -1.10365225297761
H           0.26477011995012    1.45667738335273   -1.84086881110825
N           1.47571409218341    0.14749801254308    1.70450064403537
H           0.63171591430650   -0.45062617929737    1.94126642319418
H           1.87070094907266   -0.18591166755415    0.77640165747563
H           1.10991209676382    1.13453022661333    1.54465041387178
H           2.16749858300786    0.10961721404485    2.44399693748437
