    26
        -50.47229180  Gyration_radius:  2.48042893253 Dipole_moment: 2.000
 S           0.00630336256905   -1.16457424820803   -1.95778246926398
O           1.04418289269021   -1.02721071455400   -0.94091474752976
O          -1.05520719536746   -2.05509452341609   -1.52963654698911
O          -0.46012793609677    0.12560329676860   -2.42340372013979
O           0.68216966365794   -1.87233307277994   -3.20461407694604
H           0.60088544155619   -2.78931548607529   -2.96495410742198
O           2.30372352331707    1.08239205119474    0.15830683414290
H           2.07213723846885    0.24036619412577   -0.27904969999018
O          -2.22541338574589   -0.91134524581487    0.47800264579120
H          -3.16449934190893   -1.09375768092374    0.41830013368860
H          -1.81637268569591   -1.32854332315996   -0.32281302916337
O           0.92985236092165    0.58498185417816    2.50209534128208
H           0.70976563593029   -0.33880860526625    2.18705389139056
H           1.23126573740518    0.49829763908838    3.40656328765849
O          -1.32932738763482    1.55522016520415    1.26475150437408
H          -0.59198462585247    1.31756034091616    1.85561571568602
H          -1.73720843435906    0.70717796446433    1.00612108669815
O           0.25422607548333   -1.72432399357994    1.50170999179842
H          -0.70505959399400   -1.66828657751786    1.39310187689164
H           0.61124679641823   -1.60513666116493    0.59678126696162
H           2.00425738900873    0.97494976514811    1.07913259301116
N           0.12441466661224    2.13251983474951   -0.85714356962280
H           1.09496617445281    1.88684504845296   -0.49363458112817
H          -0.12692499116803    1.38155442430472   -1.56023795773117
H          -0.54486988951821    2.03721653973425   -0.03689483738743
H           0.08759850882089    3.05404503411688   -1.27645680605256
