    26
        -50.46199280  Gyration_radius:  2.60804977423 Dipole_moment: 1.335
 S          -1.21530875549410   -1.69965061878739    0.09886239026309
O           0.20817707768275   -1.75629284767029   -0.15496478991129
O          -1.61938351653700   -2.40106930721185    1.29410339556636
O          -1.70476479780303   -0.32136044507718    0.03965242491184
O          -1.94434543978786   -2.45531091288808   -1.11082468043877
H          -2.42691944747955   -3.15210062148294   -0.67587600058220
O           2.09040406458573    1.53173009949564   -0.46233045244948
H           3.02376005519718    1.32589837700815   -0.39632939342957
O          -1.50925980202539    0.07686433474709   -2.59995287018682
H          -1.82202173248575   -0.76392498386272   -2.94069800940497
H          -1.68638424411543    0.04574244429051   -1.64099771785182
O           0.64995594055545    3.53051833412421    1.01152085957383
H           0.21199718729284    4.24378200318982    0.54581557643225
H           1.23546225575272    3.10130401413151    0.37163301744559
O           0.49130960517283   -1.50890890907242    2.63604570380421
H          -0.36067106249942   -1.88996707456514    2.33516873818241
H           1.14821062545950   -1.95368820030666    2.09227629407650
O           1.14008676199498   -0.20083221624744   -2.11495343051720
H           0.27823085177537    0.05651427135594   -2.49691198958716
H           1.73504849008509    0.93725690259441   -1.19443456353542
H           0.90814293018933   -0.88314336492328   -1.45288172666105
N           0.23681337229418    0.83704660523487    1.38488406430008
H          -0.60129383887114    0.53214522095367    0.82668371119035
H           1.03391384643742    0.97909554653682    0.71973017655132
H           0.06812764528675    1.74041995921501    1.83426905241414
H           0.43071192733810    0.04793137922100    2.05051022984549
