    26
        -50.46361286  Gyration_radius:  2.49254793954 Dipole_moment: 6.644
 S          -0.62335686801032   -2.26925105442348    0.02308953722065
O          -0.54650509880492   -2.39090922188245   -1.41328725261380
O           0.67370912530085   -2.47500063231353    0.66977471804992
O          -1.24448457674920   -1.03946592059694    0.48557041554862
O          -1.56084070311522   -3.45043532585372    0.51543465930276
H          -1.32786757691537   -4.13514121601008   -0.10251123436525
O           1.72797174331070    1.21498192934053   -0.91964208231618
H           2.45359541247601    1.45351735967531   -1.49763313820076
O          -2.07328303455672    0.98842860859795   -1.09776314638367
H          -1.65499480999582    1.70078537996676   -0.59388030875572
H          -1.98133178020359    0.19444169137761   -0.54063193053448
O          -0.25226451568482    2.71152479670998    0.24046083863026
H          -0.22282020235287    3.62795434006332   -0.03651170514165
H           0.49249654408296    2.25360346735301   -0.19679555978846
O          -0.57077246217079    0.82257587379917    2.27254797423464
H          -0.64996087692713    1.62308551020521    1.73216481605778
H          -1.02962962272420    0.12150046298147    1.76611481320735
O           0.05049731120751   -0.00174138070483   -2.38568762433359
H          -0.09239046626137   -0.93985367044432   -2.13845705259090
H          -0.79968987216749    0.43193746742759   -2.14592580483905
H           1.07329662933008    0.69125044274983   -1.51189333514392
N           1.66418778844641   -0.21787256553151    1.38742588243970
H           1.30381323262237   -1.19577411489178    1.11098751605149
H           1.85062391003540    0.31325398500069    0.51326354382734
H           0.84971000617367    0.25411495631927    1.89337439813005
H           2.49029075365375   -0.28751114891506    1.97041104230710
