    26
        -50.47250312  Gyration_radius:  2.48741420282 Dipole_moment: 2.880
 S           0.88992603279492   -0.18297458169798   -2.07835786942608
O           0.43107108334368   -1.56325605519265   -1.98011002403923
O          -0.13292325578736    0.69363849563833   -2.61596724023049
O           1.45885740419054    0.28965014886602   -0.83073223350062
O           2.07304749197572   -0.17790897348243   -3.13188436366249
H           1.60011600941120   -0.35268543750798   -3.93828504729866
O          -0.02131438582777    0.95608688564140    2.58382684563263
H           0.00446930767503    1.52984091838929    3.34977259473915
O           1.85308209645578   -0.81029395525053    1.60289640953505
H           1.98278593493734   -0.36308032243609    0.74618218281384
H           1.31004826406848   -0.19264612256703    2.12613886075769
O          -1.94567942890356   -0.49266868064683    1.24817529035594
H          -1.39385706214067    0.01472980565358    1.87044056182282
H          -2.06991326544329    0.09359300048747    0.47795733524902
O          -1.99924456550251    1.19735695229879   -0.89942227562384
H          -1.30855877744727    0.97957168881407   -1.57893626760416
H          -2.78479614582891    1.44149063305347   -1.39101723378493
O           0.20675173364455    2.31825660655776    0.37547595272423
H           0.09175777008313    1.54661058002468    1.78321716035581
H           0.78025924870867    1.70386107906799   -0.12528919045681
H          -0.66382701975714    2.22699420193854   -0.03901232588005
N          -0.08037189655910   -2.20317441087505    0.49475681788366
H          -0.92656509951528   -1.63072667010069    0.78617538521337
H           0.75304421522318   -1.81112030936554    1.02891266258855
H          -0.21651663065506   -3.19223508384794    0.66817809384518
H           0.10835095107028   -2.01891038332935   -0.53309210197214
