    26
        -50.47229131  Gyration_radius:  2.48038997108 Dipole_moment: 1.995
 S           0.59006862372673   -1.64634343077481    1.45960303784549
O          -0.78423231589977   -2.02518479695907    1.72554488567227
O           0.85148836664225   -1.51551005578240    0.02972504374423
O           1.03057674291486   -0.47675303601264    2.19244808645728
O           1.47467678957597   -2.85642620426667    1.97501627753680
H           0.90692476650280   -3.59580932869439    1.78564745888832
O           2.04225550881229    0.36612262317005   -1.48221628911624
H           1.76470545444383   -0.46354472101181   -1.04803132514209
O          -0.44129459680578    1.01362706744862   -2.50047460036495
H          -0.81180529114767    0.14314200474130   -2.17494550510435
H          -0.74176565218481    1.11569915015834   -3.40371782682078
O          -2.26048512630935   -0.04524209193734    0.94499473951155
H          -1.69792504515952   -0.78318520624082    1.29370516989538
H          -2.98771133707620    0.04470524242153    1.56287851067964
O          -1.02139723136553    2.17618397769128   -0.07305572544228
H          -1.52623799464640    1.44405920869487    0.32901867722457
H          -0.90262238454640    1.92583305619441   -1.00703182729991
O          -1.34089101752472   -1.19105413337683   -1.44188110658221
H          -1.96068853106851   -0.89649585918221   -0.76055305207899
H           1.27680350453235    0.63151684806215   -2.02335206852415
H          -0.53849105556403   -1.45633176696630   -0.94555656605258
N           1.43449006784100    1.64627313423478    0.72569796881841
H           2.01513128391628    2.36926185965162    1.13377146577013
H           1.84500671647135    1.25094706217718   -0.17416095582917
H           1.32376893723396    0.82580512346055    1.38611681115958
H           0.45965082669650    1.99870428310849    0.49080870515300
