    26
        -50.47113783  Gyration_radius:  2.45507640335 Dipole_moment: 1.288
 S           0.51347884182178   -1.74834848695027    1.00426294612190
O          -0.61107972522645   -1.64363217142564    0.07824640096695
O           1.78098390954791   -1.75036131742664    0.30277326145576
O           0.42450072577738   -0.76383109719263    2.06578110815535
O           0.39173464666400   -3.15905953699513    1.71270978428108
H           0.73370901780541   -3.76640419080732    1.06407345183955
O           0.86454395227079    1.90551990654904   -0.52709765715321
H           1.64046472195295    1.66244081808181    0.02483238886560
O          -1.61691583916273    1.06488256674413   -2.54328497405837
H          -1.22923712687172    1.93283558492258   -2.40994898796875
H          -0.87394393133086    0.44708836673825   -2.60239771291881
O           2.62576723405482    0.66384806418594    1.05718046444817
H           2.47995385098155   -0.24106394262156    0.71715807967465
H           2.29608006382196    0.62769548036895    1.95885419417905
O          -2.73715911933325    0.00875123357931   -0.30076294401633
H          -2.19791903473526   -0.79677009118784   -0.22084903592782
H          -2.54026305252619    0.36509639549015   -1.19126230892529
O           0.62132946635147   -0.43172301590769   -1.88386552768879
H           1.49955634000372   -0.82186767207319   -1.87230885874661
H           0.12422027678094   -0.93731498275493   -1.19988268562392
H           0.78621110319625    1.15516565551372   -1.15179193213421
N          -1.00965867982815    1.27056253844475    1.20337700985456
H          -0.51130650583029    0.46839842354403    1.67028390090245
H          -0.30979104453701    1.67742375738334    0.50746347955537
H          -1.82903496277179    0.85222299713720    0.65468899827994
H          -1.31622511888199    1.95844471666869    1.88176714659463
