    26
        -50.46199284  Gyration_radius:  2.60797893499 Dipole_moment: 1.329
 S          -1.02153513724895    0.75108099769732    1.66311032649198
O          -1.67277483943893    0.02117960821000    0.59677033746191
O          -1.14286119356671    0.12014826793417    2.95579190404157
O           0.35842461034249    1.08348100267328    1.30536983252143
O          -1.76986991369194    2.16067446422900    1.80033274462880
H          -2.07736041281846    2.15945341507012    2.70201514553708
O           0.44747431745970   -1.03825075568168   -2.37877007165365
H          -0.05713669087426   -1.68919703851277   -2.86816749362378
O          -0.74825039552454   -2.29069567172906    1.91482446166223
H          -1.54236926179072   -2.29531234477937    1.37226863289965
H          -0.85645909963321   -1.49982446611001    2.48443404891590
O           3.17075116036971   -1.26511054873199   -1.49898095684451
H           3.82513492192141   -0.63818056642027   -1.80918948648093
H           2.39026579207953   -1.14978199156067   -2.05947507503291
O          -0.13219805192030    2.95425811717873   -0.54544726720754
H          -0.85797061275127    3.43349770150141   -0.13986469923004
H           0.18576143288122    2.34124491802212    0.14373697344979
O          -1.21398611129471    0.86969705919869   -1.89316671338135
H          -0.16006678894190   -0.23931483285690   -2.28831947014151
H          -1.53790448221671    0.53213702616315   -1.03363095470973
H          -0.78019502343036    1.71472866399853   -1.66365967874428
N           1.05225978285114   -1.22600521501056    0.25397515923144
H           0.69004822105538   -1.24112131543360   -0.72902439627205
H           2.04257640578379   -1.47753892980406    0.20291778015385
H           0.93071965316098   -0.25060219746705    0.62949780828930
H           0.47752173724310   -1.84064535776963    0.88265111804463
