    26
        -50.46907326  Gyration_radius:  2.47665757148 Dipole_moment: 2.897
 S          -1.87344098922600   -0.50385790703937   -1.10479035873110
O          -1.08012525925249   -1.65292006011445   -1.52650565622051
O          -2.62689110657901   -0.75581198307615    0.10046940589790
O          -1.06992541142289    0.70872782568715   -1.04887831035939
O          -2.93954807856448   -0.25178405939082   -2.25289425918924
H          -3.53966272695679   -0.97419639341910   -2.10259915927749
O           1.54494187744782   -1.14491544133980    1.57177018400445
H           1.85590698010696   -1.73237517978937    2.26127821522409
O           1.52287743317018    1.23909759944381   -1.62991304358734
H           1.79179902782821    1.55030052556029   -0.73284024979003
H           0.54955590796361    1.26678739248267   -1.61910189408625
O           1.88524915355093    1.62143148540909    0.98600378980815
H           1.93723222262795    0.70914860597132    1.30428089034141
H           0.98406293769560    1.91736622049573    1.19522998667511
O          -0.84516184363058    2.02589122699733    1.21282531168225
H          -1.42626036971119    2.78708940849809    1.20182976692448
H          -0.98473702792233    1.55684291340768    0.35552938040025
O          -0.92110072566341   -0.57686832959622    2.11334315806705
H          -1.59279084653495   -0.79067386046108    1.43182673713199
H           0.57809669299335   -0.96686584268899    1.77915196700434
H          -0.91950782389233    0.39269093115224    2.13909596434475
N           1.45861316938651   -1.30848170587069   -1.13322533444776
H           2.06110717938791   -1.95091188874464   -1.63441847583211
H           1.60130911906729   -1.37132008281535   -0.10509531671736
H           1.61785857601470   -0.28217792158162   -1.43021640777365
H           0.43054192210407   -1.51221349916245   -1.33215630149274
