    26
        -50.46907324  Gyration_radius:  2.47663829718 Dipole_moment: 2.895
 S           0.69830128360941   -1.90053667331540    0.94043891584639
O           0.32861235760357   -2.70794709708250   -0.19766289289339
O           2.00251936129171   -1.26631298167187    0.78421607651982
O          -0.32119331077114   -0.93693486261688    1.32928057169588
O           0.82998042857829   -2.89550380051928    2.16964149712410
H           1.34682865728812   -3.59330671678104    1.78171835618124
O           0.55037328308534    1.33400799649164   -2.02114229780216
H           0.82611437960884    1.54404698299662   -2.91393842442515
O          -2.43164978763701   -0.58046505237102   -0.19393658731829
H          -3.18013015409736   -1.04858328120579    0.17741918599900
H          -1.66523368329506   -0.76529873618840    0.40005300861443
O          -1.65148375743066    2.07092217170469   -0.37185823337533
H          -2.11163150142866    1.21551272761905   -0.36809780380198
H          -0.95869035964593    1.98783612390422   -1.04222373313462
O          -0.25044290307904    1.71715723323529    1.87125268735818
H          -0.87595364756370    2.00665186247842    1.16492158299953
H          -0.39435797514962    0.75731021977608    1.95003951725207
O          -0.47978711682528   -1.03929240591813   -2.08323384102194
H          -0.07932464115063   -1.71895006495851   -1.50095089096488
H          -1.36225876886392   -0.90278398646224   -1.70466471799338
H           0.18879270401131    0.39740348065813   -2.05947951101249
N           1.82472098458376    1.28638307372905    0.37160194945801
H           1.04499209031658    1.59378330396715    1.05316251187984
H           1.97107863625625    0.24453957652551    0.54831135224631
H           1.46569361392544    1.39604947169621   -0.59817149595619
H           2.68412983673697    1.80431142432030    0.51330320653056
