    26
        -50.46926240  Gyration_radius:  2.54930060206 Dipole_moment: 4.552
 S          -0.07751288384909   -0.41232619706618   -0.37361223443531
O          -0.91548856934193   -0.41734564066580    0.93527494565993
O           0.45061726489518   -1.73212857388624   -0.61020856059310
O          -0.99598446571421    0.05616183984881   -1.40372579984316
O           1.00050378820523    0.57775805261979   -0.16913457562858
O           2.63439462333721   -1.11001767925789    1.10076173150949
H           2.58431606039160   -1.87422032652429    0.51914941937224
H           2.16905677370839   -0.40069417906270    0.62012812611185
O           0.05725091767616   -3.77637124222149    1.04431580124692
H          -0.78894932872605   -4.17344688415239    0.83447088658070
H           0.22821016382993   -3.11228470586541    0.34385264744079
O          -2.44170996939526    1.71503717766184    0.05939571878592
H          -2.12570168562114    1.03365751670261   -0.57358506970999
H          -2.45487320103740    1.25969612685183    0.90635274853869
O          -0.29464196699074    2.00059309262493   -3.07271247596864
H          -0.16223230507146    2.83780744404065   -1.59967737926528
H           0.44053096904426    1.69220249130862   -3.60461936094987
H          -0.64062738210911    1.20936906702001   -2.60304006992350
O           0.50560096390553   -1.63861932040097    2.61975038419032
H          -0.36357471180838   -0.88703428612828    1.66791436110589
H           0.33887339171518   -2.55453856503714    2.31905325807046
H           1.40658344516245   -1.42696081610661    2.28280323233612
N          -0.13475210941213    2.84124122138857   -0.55414988688456
H          -1.11331579493949    2.63419285410329   -0.21384239537917
H           0.25325391266791    3.69513385260970   -0.16950297055169
H           0.44017211948790    1.96313769953792   -0.30541248181292
