    26
        -50.45207188  Gyration_radius:  2.56088151603 Dipole_moment: 5.259
 S           0.66597314446568   -1.79176941330923    1.36309698056254
O          -0.55395091760950   -2.36736523793723    0.85772871924596
O           1.81485607406917   -2.02580102779273    0.48171813353075
O           0.56317883652826   -0.38574799969745    1.71934266265269
O           0.99590345137770   -2.55117624351641    2.72075951502635
H           0.81455282280985   -3.46464861691422    2.51934331291310
O           0.61549616734813    0.69073446324904   -2.21059620934886
H           0.80318430157235    0.49297249190206   -3.12877363523004
O          -0.01359178740497    2.81269322206814   -0.55363265091750
H           0.10515424846000    2.12941301020439   -1.23363338897783
H          -0.68778371600727    3.40875428252535   -0.88412142042297
O          -1.43544562680797    1.40287297089556    1.38366892851188
H          -0.81503058406200    0.70426389400582    1.65392569784510
H          -0.90998290350865    2.00887813138824    0.83438137347396
O          -3.06956316562479    0.22782306015386   -0.34835323040567
H          -2.53279277391012    0.71808366258066    0.32284280096880
H          -3.56138688210573   -0.42955652892705    0.14616233129187
O          -1.02940929386258   -1.09431428140793   -1.44717860743770
H          -0.80736177325246   -1.64528724039785   -0.67140817978059
H          -1.84502444547627   -0.60996623705844   -1.17579450056258
H          -0.04494174910057   -0.02529937903544   -1.90774461744501
N           2.22453073540988    0.39500386308176   -0.10625770646751
H           1.59300289902650    0.60380624406412    0.69283365248082
H           2.27470817350121   -0.68013364423588    0.01127799433498
H           1.71924570284824    0.60422888360590   -1.00268012702261
H           3.11647906131336    0.87153766048235   -0.03690783884387
