    26
        -50.45207195  Gyration_radius:  2.5608123034 Dipole_moment: 5.259
 S           0.34815876963984   -2.10127490165475    0.98729851096067
O          -0.06636221690297   -2.55801207530659   -0.31443123396024
O           1.78574600305905   -1.81978285458016    1.06189479554039
O          -0.42666204527013   -0.98558879295831    1.50626704644462
O           0.08646803796540   -3.30460910214541    1.99341625021412
H           0.38785173690820   -4.07091507873458    1.51402626313450
O           1.47388592455192    1.59954884706360   -1.00603652287260
H           2.20671727261945    1.81681935427232   -1.58322699330492
O          -2.15887962846576   -0.00847478145905   -2.22100658409453
H          -2.57415842100296   -0.86278676380721   -2.34859042877040
H          -2.31618030495080    0.22400033089523   -1.27224515108189
O          -0.68588208186590    2.77111349541120    0.26172563462004
H          -1.20804001498759    3.36708243299871   -0.27795068790283
H           0.03089882874430    2.44404803096872   -0.30625662757919
O          -2.34866653108702    0.53852073001091    0.37056690144649
H          -1.79630302148928   -0.13221296343361    0.80759291323566
H          -1.85897125723944    1.37252731787279    0.46928940612469
O           0.44749960650049   -0.51999380515364   -1.96997016842216
H           1.06363500697899    0.75067010642556   -1.39545377262432
H           0.36379415968813   -1.30972662074042   -1.40071748595080
H          -0.48304485217206   -0.28688134244556   -2.20059636654865
N           1.57203948105445    0.65976124695773    1.48636023170608
H           1.63446788174874    1.15652030720315    0.56334481578713
H           0.57419459577746    0.44921907316143    1.68863069177493
H           1.92105493004782   -0.35588921962588    1.34862498425882
H           2.02673813017309    1.16631700880996    2.23744358787596
