    26
        -50.46627079  Gyration_radius:  2.44581380484 Dipole_moment: 6.882
 S           0.08486274501931    1.84898207096260    0.73892762054839
O          -0.97771307680125    1.58459087767517   -0.22102430019832
O          -0.31520451178001    1.79914223036194    2.11571194741828
O           1.24739578289149    1.00917533871063    0.43103497327647
O           0.55476637076019    3.34152323191748    0.47669440558766
H           0.46984515137742    3.69634429053693    1.35433455653490
O           0.15083219741550   -2.42438299526618   -0.66819534472604
H          -0.20060012368137   -3.28516621839909   -0.89652115949769
O           1.50361733052420   -1.43263162015577    1.66953983879600
H           1.18452606359463   -1.96271864322462    0.92745610590776
H           1.55334991202584   -0.52002493056544    1.34282520954437
O          -0.92700058994400   -0.78059914017798    2.75280654511725
H          -0.03427519621867   -1.15582316147185    2.63310702644423
H          -0.79657307402179    0.18235819906785    2.73152183997844
O          -0.90854256593707    1.09651203779959   -2.78734067860863
H          -1.74691018669015    0.66632144796262   -2.96836254902051
H          -0.99092625898991    1.45655045570091   -1.87292302702505
O          -1.74076696785270   -0.95741079030113    0.25749497671401
H          -1.60916120420458   -1.00728079706037    1.23962373898572
H          -1.58380375778652   -0.01945283242067    0.04866033546987
H          -0.62779797108410   -1.89080920471861   -0.29804405019214
N           1.16116683066969   -0.25935914653352   -1.82865808934615
H           1.26488464140859    0.30910408373878   -0.92637324277752
H           0.85320199960368   -1.21611719973869   -1.53216931665757
H           0.39397538549020    0.20674994818439   -2.38106990401441
H           2.03685107418344   -0.28557755260886   -2.33905744825486
