    26
        -50.45207195  Gyration_radius:  2.56081221367 Dipole_moment: 5.259
 S          -0.43078473956649    1.77904131524691    1.46995395228699
O          -0.08258919366112    2.73015204635333    0.40901773265341
O          -1.77814083375419    1.28228471446786    1.35681734386166
O           0.58227489967396    0.74294201340615    1.59098190418162
O          -0.36393103959742    2.59948145919557    2.83054041783891
H          -1.17760056801588    3.09523144977631    2.83680141018463
O           0.27111080998297   -0.12903220108758   -2.37751522943578
H           0.00059637161264    0.10585870441000   -3.26579725534167
O          -1.96304310913596   -2.37594419351312    0.30931282704511
H          -1.07946369794499   -2.30390301741716    0.74866640948584
H          -2.60805308026040   -2.25182091745152    1.00726447901487
O           0.41838208237826   -1.94870550968873    1.40374577778492
H           0.41555426441983   -1.00677503768013    1.64610531451790
H           1.03459333196531   -2.01506106993679    0.65474903219623
O           1.79943166059654   -1.98728916195785   -1.01542710448421
H           1.67845734206580   -2.89917164887875   -1.28543322187742
H           1.21116624281633   -1.45522042682385   -1.57595939053886
O          -1.84653547019883   -0.03741047098953   -0.96958057490534
H          -1.86807299307140    0.53653340907742   -0.17910454050406
H          -0.57961678369242   -0.09287788863045   -1.81582279904201
H          -1.97086951770338   -0.94848326485448   -0.61190315950779
N           1.71333593458357    1.31810489479335   -0.66559165386141
H           1.27602705996337    0.77301414498854   -1.44933931389442
H           1.02869313057070    2.10598628292519   -0.37783738493087
H           1.66561543228876    0.75255351443234    0.20551636163677
H           2.65346248368849    1.63051085983712   -0.88016134436298
