    26
        -50.46627187  Gyration_radius:  2.44599481777 Dipole_moment: 6.891
 S          -0.99137505403165   -1.70297821176738   -0.28746589958256
O          -2.33462766717878   -1.52213804830161    0.18254339834820
O          -0.64736576253284   -0.94421471223880   -1.48143498013838
O           0.02782335962541   -1.48603158146490    0.74538041354737
O          -0.87331263009118   -3.23312241073951   -0.68969385261761
H          -1.71817389898859   -3.54776203098012   -0.38844514635978
O           1.17451924394809    2.10542068227243    0.72873468535900
H           1.38537187215040    3.03869516900925    0.69518777688851
O           1.65567494808711   -0.46541219947382   -2.62010968131499
H           1.49376656412323    0.30438477169710   -3.16951617712990
H           0.76450509144973   -0.77460461943387   -2.33252365610959
O          -2.60017040799846    1.02505958594532    1.11870013655275
H          -2.73219810446257    0.11180271175176    0.81330225315967
H          -1.97493734369944    0.95055520704155    1.86409303936662
O          -0.34383898845602    0.52021143962817    2.58863913501436
H           0.24061283966588    1.16338392046812    2.16641394558230
H          -0.24804737741849   -0.30078130478691    2.07978754334809
O          -0.86526769711000    1.64544429043810   -0.75929919167618
H          -0.82001782633950    0.74873406995202   -1.13590233654764
H          -1.61470907114289    1.59382740323455   -0.11121168853265
H           0.36000439639016    1.97881294702584    0.13839671155931
N           2.16685776263752   -0.24045251192970   -0.02552319529975
H           2.15133905585421   -0.28367234073454   -1.07841510270261
H           1.97781229733819    0.74009180675773    0.29203700886028
H           1.33238633513576   -0.82408516987036    0.30833115039728
H           3.03336805306174   -0.60116887351335    0.35799371010889
