    26
        -50.46361292  Gyration_radius:  2.49259128024 Dipole_moment: 6.644
 S          -0.69845669018570   -2.24706101841949   -0.05408388693955
O          -0.61774081217463   -2.32548089549361   -1.49327416033133
O           0.58751606814368   -2.51600975226001    0.59152113175634
O          -1.28109953897004   -1.01269011598814    0.44483334922485
O          -1.67707576561537   -3.41176261593388    0.39585120893798
H          -1.46699132039473   -4.08179461425281   -0.24580195323612
O           1.77287974889525    1.18628986810443   -0.87004241006573
H           2.50913609701397    1.42019850565028   -1.43635096442479
O          -2.03154210700872    1.09150360696546   -1.07706888609089
H          -1.59380022154668    1.77343895912342   -0.54830910677089
H          -1.96948251881015    0.27765124559744   -0.54506138455100
O          -0.16401630388509    2.70948390923534    0.32713631663252
H           0.56784414544706    2.24112620784508   -0.12082729010463
H          -0.10001670085194    3.63345960510911    0.08313860539571
O          -0.55811669674345    0.76767070278605    2.29475428639659
H          -0.60715851735758    1.58719626043717    1.77986802098201
H          -1.03658350060334    0.09879949860893    1.76354652293655
O           0.06675184178796    0.07210617902935   -2.38372489864983
H          -0.77012966527344    0.52627949096509   -2.13520603158998
H           1.10559626207498    0.70313916979281   -1.48233067235995
H          -0.10928090788338   -0.86812283086240   -2.16790754528375
N           1.64699184136314   -0.31770334082067    1.38870324795500
H           1.25627526688760   -1.27352502437765    1.07832118065781
H           1.85681632125372    0.23510089870514    0.53349664465091
H           0.84523857364495    0.16447574999668    1.90515948501055
H           2.46644512079002   -0.43376965954478    1.97365920984724
