    26
        -50.46627012  Gyration_radius:  2.44605543608 Dipole_moment: 6.894
 S          -0.20564393252307   -1.58232058077538   -1.19007696332663
O          -1.35127262640739   -1.24554104025353   -0.35652415614379
O          -0.28445600692582   -1.11808700905884   -2.54514165258489
O           1.03287898390837   -1.19808219494047   -0.50477101143982
O          -0.17271366089801   -3.16634902928265   -1.27429132436629
H          -0.16734732511242   -3.28072612769932   -2.21783528923797
O           0.57871109613247    2.07084984937856    1.31324463812131
H           0.40048292623923    2.92041398722144    1.71706733035294
O           2.11969698831534    1.28139753324928   -0.98649892709000
H           1.78699202952592    1.70217231066411   -0.18296635824963
H           1.88025333925508    0.34351642774747   -0.91478903222946
O          -0.10989977429288    1.60345532589785   -2.54614945364271
H          -0.22144886850106    0.66335380972634   -2.76629551260815
H           0.80047380471495    1.67281395287349   -2.20196497481165
O          -1.70470885024223   -1.39442833731443    2.22807696953095
H          -1.67715207616607   -1.49729201882491    1.24749442885373
H          -2.44065951897453   -0.80389366488994    2.40207010834248
O          -1.36690319390662    1.44889569518018   -0.24011396217874
H          -0.20840146481991    1.87743339662661    0.70384780523567
H          -1.02197247902560    1.67474311788507   -1.14246698080989
H          -1.48656919772263    0.48307757678849   -0.27084380980605
N           0.77878530130244   -0.49286144590799    1.97718377192196
H          -0.17422195128287   -0.83556994820094    2.26849307143163
H           0.93132652188137   -0.85204850646816    0.97932699031482
H           0.77421648772482    0.55302092090525    1.90886680029554
H           1.50955343765664   -0.82794400044254    2.59505749413823
