    26
        -50.47150075  Gyration_radius:  2.42637120421 Dipole_moment: 3.449
 S           1.09754631970298   -1.52278082057032    0.13496677398939
O           1.56126027522601   -0.27320161157063    0.71943799023392
O           0.48575334984552   -2.38310505366926    1.13582206822809
O           0.25063175876738   -1.31517057393611   -1.02256928296585
O           2.37756025458449   -2.28085327452116   -0.39507071448278
H           2.86231841024345   -2.44695600174641    0.40636414101081
O          -1.02037420376414    2.28057881286748   -0.13311786619717
H          -1.26561491083667    3.17964526747117   -0.35319026238757
O          -2.13807429780949   -0.17228235512608   -0.60603215109050
H          -1.34283884579263   -0.63289483126392   -0.93829227564465
H          -1.87656863926388    0.76524118970475   -0.53431379635043
O           1.18557068373380    0.07326664026131   -3.09536051095127
H           0.51930788800653    0.01539166318036   -3.78205046555846
H           0.90953671872929   -0.54950903627369   -2.39358250215357
O          -0.15266505129973    1.16791909344205    2.22622508897351
H          -0.49877196589484    1.74230176443718    1.51785120412619
H           0.62841730308293    0.73578463022608    1.82906305151494
O           1.37520699635186    1.79565711597538   -0.99313662320678
H           1.59779093451171    1.08781151467886   -0.35931914263582
H           1.39342218547891    1.36189605988861   -1.86570034862612
H          -0.10206607161679    2.13986847349804   -0.51532505625221
N          -1.59959848835574   -0.96980078158465    1.82951194353034
H          -2.28371440404974   -1.33669888377151    2.48120214846554
H          -0.82627107332473   -1.66411242636339    1.63395298574958
H          -2.02376355109433   -0.71015596031014    0.88576650998634
H          -1.11400158516506   -0.08784059491822    2.18689709269497
