    26
        -50.46361287  Gyration_radius:  2.49250265069 Dipole_moment: 6.647
 S           0.62741864225800   -2.26546781710895   -0.10982088116238
O           1.15068473450467   -2.14360464812939   -1.44970510559297
O           1.61282297861154   -1.89888750788267    0.90876332264792
O          -0.62741935385081   -1.56510219441004    0.10680840593991
O           0.31652216300302   -3.80651439961476    0.10291853890351
H           1.02168988418856   -4.20307994006231   -0.39739323785138
O           1.05644843074739    2.01048141612724   -0.37730287203625
H           1.69026602270600    2.64626324581507   -0.71131693810660
O          -1.89007272743131   -0.00833095181801   -1.70704394827465
H          -2.04713201413704    0.74370982215643   -1.11887755005168
H          -1.56913764798309   -0.72251760225389   -1.12728222124926
O          -1.63880927009551    2.18732028155284    0.08084181577725
H          -1.99749566932666    3.03258685540365   -0.19165988277686
H          -0.67757954399141    2.21108730500040   -0.09548693681404
O          -1.51203462116892    0.13102783812415    1.96547990153042
H          -1.82932808577060    0.85592622506274    1.40599111656854
H          -1.39350275710253   -0.62994679434565    1.36103842736058
O           0.70422306202122    0.33884503772363   -2.25477383250167
H           0.94901561336204    1.31841800707767   -1.12774140174251
H           0.99098664120764   -0.57364972004926   -2.03854827370146
H          -0.27629897841080    0.26828423095543   -2.29897819102468
N           1.08640294472046    0.43635909391072    1.83634269053505
H           0.04200741890270    0.38062840826171    2.05573829288176
H           1.36099119975503   -0.54661908004130    1.48874899268947
H           1.21361210272843    1.10161019600875    1.04741871500107
H           1.63571882054858    0.70117269252484    2.64584106305228
