    26
        -50.46926234  Gyration_radius:  2.54904244715 Dipole_moment: 4.556
 S           0.15679071690962   -0.05596784072915   -0.53629426977540
O           0.83818980627531   -1.04106907549442   -1.33756903420388
O          -0.92334180001328   -0.66156664390059    0.27045573258932
O           1.15647060095349    0.56835301248881    0.47664710399383
O          -0.36199490107442    1.07498733927579   -1.29525593291160
O          -0.31778524642216    2.90308584249308    0.61248864018195
H          -0.24252872091404    2.40844400237313   -0.23277300782701
H           0.46612719206197    2.64423811644617    1.10584548660599
O           3.39983804015494   -1.67007341238474   -1.00040893034858
H           3.93043652632144   -1.03306823630204   -1.48045190882455
H           2.46809721750142   -1.48828169125572   -1.24457753901850
O           0.36709806187044   -2.95855706661709    0.70673056278133
H           0.67680447470659   -3.15684820941131   -0.18186780016145
H          -0.23614261815444   -2.20056089829312    0.59641448945241
O          -2.97500172206200    1.38850236570666   -1.65799051917140
H          -2.92056449066334    1.45137396858900    0.03966004227910
H          -1.99402247306897    1.33845873073194   -1.69706324662639
H          -3.29830129933762    0.64820808581824   -2.17388501481782
O           2.38383580332012   -1.39096363504264    1.47774128382116
H           2.99866647942624   -1.57398270894820    0.73900180040971
H           1.66932979294272   -0.19907393353058    0.93507964816212
H           1.69493420115711   -2.09131508109649    1.40676595299679
N          -2.40355525785621    1.31885804159848    0.93910434635768
H          -1.68562834571492    2.09108972405453    1.00532357447609
H          -1.83208460707281    0.41769741803772    0.78134282435995
H          -3.01566742123581    1.26803179539383    1.74553571522227
