    26
        -50.47150078  Gyration_radius:  2.42637760678 Dipole_moment: 3.448
 S          -0.27721829478594    1.83581049120032    0.30858423343138
O          -0.36621878533639    2.46382579682246   -1.00055607708844
O          -1.38167901959667    0.91494647210883    0.53291505912463
O           1.01439464992542    1.22595782263442    0.55374483237997
O          -0.42136095679178    2.98951783435441    1.37724335549891
H          -1.24755557552664    3.39216657460504    1.13197358541972
O          -0.01143455035803   -2.50079034143143   -0.07570516696325
H           0.01205024616211   -3.43833607445774    0.11759105512086
O           1.52446130929117    0.15620368684424    2.93992971699234
H           2.44708547627370   -0.10346370003137    2.92802481993218
H           1.37587230905252    0.67432249417188    2.12382346082850
O          -1.90724259894817   -0.95952042036340   -1.33646440023746
H          -1.95080186239571   -0.28900503932465   -0.62717981616949
H          -1.36298019625975   -1.67615303762524   -0.96015582944487
O           1.78867466262959   -0.72197140450033   -1.11711006876044
H           1.28036279303790   -1.47480906938601   -0.76025527742062
H           1.69791613926412   -0.01484428359797   -0.44875009653942
O          -0.67468723637881   -1.18819010300609    2.05768561671878
H           0.09016462736233   -0.85031694311695    2.55836538777650
H          -1.04745234045199   -0.40298430972232    1.61407340765861
H          -0.24154854788305   -2.04314393706558    0.78841011370774
N          -0.06389884416223    0.40715231270620   -2.58367191061064
H          -0.01079397936720    0.52714917270284   -3.58871237933073
H          -0.16704305456103    1.33076879961257   -2.07908653774607
H          -0.89872983349723   -0.18519244254710   -2.27779761419875
H           0.79966344329936   -0.06910037158796   -2.17691946008007
