    26
        -50.47168698  Gyration_radius:  2.49104846807 Dipole_moment: 2.996
 S           1.87222038716576    1.07116756769011   -0.80529855278726
O           1.64102308954556    2.07484583392707    0.22798056857861
O           1.73697685083248   -0.27384657559707   -0.25094887118057
O           1.08246417745627    1.26825746983756   -1.99411648887363
O           3.38757018841193    1.22979440530843   -1.23230926790353
H           3.82157763808876    1.21874857993494   -0.38620684414747
O          -1.42237617775848   -2.17739711575416    0.77232847115804
H          -1.83590636067945   -3.04046804823087    0.79450048515353
O           0.75362530377754   -1.14100099231255    2.09907476405512
H          -0.00457425816477   -1.66840153950291    1.78830065645944
H           1.28282617020398   -0.97015726872829    1.29564038765527
O          -2.30238897130472    0.40383803540631    0.39265363634342
H          -2.17988694304605   -0.54380623542156    0.58383582719377
H          -2.07578358095546    0.50523242868122   -0.55161145399643
O          -1.38693934219959    0.51696195016005   -2.16803947352384
H          -0.45482758625613    0.84966406257082   -2.11289138115782
H          -1.77845415910297    0.95423431205000   -2.92536968791532
O          -0.08013401394560   -1.83770737869938   -1.43090396795181
H           0.68834262979411   -1.33493402288783   -1.09106297251516
H          -0.91255306841689   -2.13011863754324   -0.08897558438381
H          -0.60749140289519   -1.18751431338771   -1.91764489835995
N          -0.25610965787693    1.26560909375306    1.82020064864859
H          -1.13363683019866    1.05101810276098    1.25986295903532
H           0.48043093101034    1.68703038489177    1.18301179438280
H          -0.45499997726803    1.88054768223908    2.60091659596366
H           0.13900497375732    0.32840222883861    2.13707265006746
