    26
        -50.46245819  Gyration_radius:  2.53092179218 Dipole_moment: 4.458
 S          -0.79885502281159   -2.07726452036376   -0.31464234631646
O           0.03455924797271   -3.23735984061461   -0.54070438107939
O          -0.50189148686476   -1.44011806216124    0.97673374819455
O          -0.76316914896687   -1.10986343803505   -1.38696899560518
O          -2.29388118940485   -2.59292364994329   -0.21098108800637
H          -2.23513449536723   -3.37602711633548    0.32879707007249
O           0.62211504226198    2.27948632314679   -0.80852304166278
H           0.84411236122293    2.59178626566331   -1.68591392644677
O           1.92611707991996   -1.85047814724563   -1.71136261731241
H           1.38213766082119   -1.51075587568874   -2.42858062162358
H           1.35351084878684   -2.53359829454253   -1.29096981849346
O          -1.63883394399168    0.86891997173944    1.79598089502238
H          -1.36170976746026   -0.05152364807740    1.64805207453090
H          -0.82695545079749    1.34260281171622    2.03835108742798
O           0.76485611262093    2.34695431523717    1.95485755702784
H           0.73105505100004    2.55531712921718    1.00800331609677
H           0.56845129825843    3.16019204731062    2.42209815321487
O          -1.73540993969533    1.31831012948567   -0.84341649351289
H          -1.92116749135346    1.23402358242143    0.11930223137731
H          -0.35174455270196    1.97168173038804   -0.85942612793788
H          -1.52379567815980    0.41090554987875   -1.14249371193175
N           1.56810885664065   -0.04666068044082    0.19498797388038
H           1.89350353819186   -0.70848223415962   -0.56610971043950
H           1.25243581594443    0.86042313464926   -0.22869934403935
H           0.73273525085946   -0.53303544985792    0.63248622248423
H           2.27885001306860    0.12748797662795    0.89914188507842
