    26
        -50.46245819  Gyration_radius:  2.53101007695 Dipole_moment: 4.460
 S           1.76459664465153    1.35678607068297   -0.30943139556128
O           0.34894827646674    1.70354973457287   -0.50342977228064
O           2.36850839704522    2.14894495259048    0.73898955123191
O           1.92734294619509   -0.06825975146668   -0.13747559110514
O           2.49514819732483    1.74223854976768   -1.66199798116740
H           2.56879286140064    2.69165543776298   -1.62663601403687
O          -1.02734285163641   -2.23503845730992    0.42857543686017
H          -0.66412252280063   -3.02318186185210    0.83298158606185
O          -1.28523330836220    0.38932939449381   -2.20574144202143
H          -2.01696045447971    0.22108630473544   -1.59042967791413
H          -0.70417484439614    1.01768696109858   -1.74371997118361
O          -3.09694929589827   -0.52280044562861   -0.23849170332484
H          -3.86622345861369   -0.86360735552286   -0.69703375336619
H          -2.53438240358646   -1.28634562590517   -0.03437247137266
O           1.73829387357608    0.43447412662270    2.61889202840423
H           2.22120194698428   -0.31163173658569    2.25032628905628
H           2.04381934597049    1.19813381458407    2.07593823936078
O           0.36041177047803   -1.64228893265328   -1.62204211321059
H          -0.21674390196215   -0.97420168810677   -2.05684198671373
H           1.06442711705204   -1.12331676786155   -1.18321474507453
H          -0.48251334376629   -2.08157573680048   -0.42327642622992
N          -0.62328112350146    0.24204196868338    1.43463557357667
H           0.22423714201031    0.28315824589708    2.06956133547147
H          -1.46690115995339    0.59392171123194    1.87710458571735
H          -0.36524698552097    0.85121395136795    0.60508394659905
H          -0.77565285467169   -0.74197287443310    1.10204645222579
