    26
        -50.46926243  Gyration_radius:  2.54925303223 Dipole_moment: 4.554
 S          -0.56100268084257   -0.01597025190158   -0.02245452227804
O           0.20159981133569   -1.22119830601141    0.59497280799091
O           0.42412046498523    1.07955209400620   -0.13832959811873
O          -0.96278584778832   -0.46761289729515   -1.34867186744126
O          -1.66074234476536    0.34641243036242    0.83547796566037
O          -2.17281618204318   -0.87707643205915    3.14020598325546
H          -2.68963237277296   -1.66204575486355    2.95456645478625
H          -2.10781899004977   -0.38672705210358    2.29392293740614
O           1.09866837088672   -2.02911107723936   -1.89202710829501
H           1.30127646761246   -2.38616409507166   -1.02228859758817
H           0.20443564479517   -1.63647591658090   -1.78696554307861
O           0.12852592729502    1.92990195924821    2.37584147745084
H           0.30868528823733    1.76203853640836    1.43241159230680
H          -0.83062312538416    1.95074282697264    2.44244458349182
O          -0.50602377407171    1.02981513199670   -3.49506579279749
H           1.09355515262730    0.80986686609284   -2.96436814650061
H          -0.83329830921681    0.43138937501366   -2.78718805600789
H          -1.01245104128128    1.83927732953683   -3.41235634869925
O           0.50641901067619   -0.63021736263820    3.02518376941095
H          -0.39678379860858   -0.83290506031108    3.34193566933397
H           0.37426917995462   -1.01630712066553    1.59006647703973
H           0.53520438672488    0.35269897945481    2.96941394811643
N           1.77572614442545    0.49879018207029   -2.23515445007977
H           2.70786433019098    0.87061097899952   -2.37846151090779
H           1.74495855414405   -0.55691937682491   -2.20634499721344
H           1.32866976294971    0.81763403340227   -1.30676712726128
