    26
        -50.47168699  Gyration_radius:  2.49104288974 Dipole_moment: 3.006
 S          -0.54707536304116    1.32500096230821   -1.80184222172648
O           0.47698183646134    0.28929519320496   -1.68690512786185
O          -1.87969608166428    0.73657044002908   -1.72124866915306
O          -0.33924013398741    2.42057330723011   -0.88957040661738
O          -0.42346646898169    1.91799913299681   -3.26367790009213
H          -0.70584402300221    1.17764350232894   -3.78950833778987
O           1.61711416165213   -1.67317110866392    1.39511787140528
H           2.37570885372751   -2.06089843610448    1.83171276156942
O           0.32336703064123   -2.29483727518789   -0.95189878632126
H           0.50620563321302   -1.44124076897792   -1.39078429098103
H           0.87117958368104   -2.28091365367236   -0.14606523942729
O           0.23032979008410    2.06065897776408    1.60818425060411
H           0.08032195194705    2.88683423300776    2.06967913536935
H          -0.02660445978670    2.22477590677770    0.66493901103179
O          -0.69082656343922   -0.42442604093302    2.22819852149724
H          -0.41431022314768    0.50418647118095    2.10789273512323
H           0.12248108725306   -0.94925102493721    2.11546932461897
O           2.22859416724905    0.60921103091821    0.30532669740338
H           1.77070090692485    1.25498861044631    0.86304183262318
H           1.93407933918473   -0.81483171230205    0.98673754952242
H           1.69416955674064    0.56008028728306   -0.51371249578676
N          -1.87050274684948   -1.21635259594847    0.00366984268658
H          -1.96576974258414   -0.39989940439155   -0.66748195049247
H          -2.74654639200190   -1.71859803694175    0.09036947510976
H          -1.09410320485475   -1.82759105081645   -0.39440643106424
H          -1.52724848540605   -0.86580692660451    0.94676284873304
