    26
        -50.46309159  Gyration_radius:  2.44660797177 Dipole_moment: 4.783
 S           1.84461316988320   -0.29113069159083   -0.66623931102089
O           1.67550053807620    0.53329552862554    0.51038574313863
O           2.45324088819447   -1.57348355211464   -0.45887073971591
O           0.59890509691736   -0.35761474136742   -1.44568294712519
O           2.85195957286712    0.54244585255398   -1.59968423679084
H           3.31377509280104   -0.12815267548794   -2.09404045176772
O          -0.58697684584730    0.10730264631340    2.10358214367496
H           0.21182240269108    0.54297385751861    2.41331670180165
O           1.21812121152326    2.95624030875916   -0.40751415775720
H           1.75066058820607    3.05161979021689   -1.19894034837946
H           1.54766778520574    2.13772510957935    0.02554506593450
O          -1.44221704926509   -2.12139710238600   -0.96446699556663
H          -2.07012107411392   -1.49164912407745   -0.57903907348839
H          -0.74206012850320   -1.59142585895151   -1.37695800820808
O          -2.99604062855612   -0.36176446470931    0.64682967066486
H          -3.71249291043892   -0.92704533472338    0.94035392903181
H          -2.36676208446928   -0.31291594214731    1.38014153257079
O           0.30004004493000   -2.13547691746653    1.10202455570889
H          -0.33990770163803   -2.38778346502242    0.40400989488405
H           1.15656164639295   -2.04702162170207    0.65456043642764
H          -0.25126948495873   -0.77966894670352    1.78331943036637
N          -0.91830365363183    1.35350115318693   -0.24345455094035
H          -1.89910850589443    1.42746075067113   -0.49790623820090
H          -0.38247731375870    2.23926585494425   -0.31989550752121
H          -0.82274264577007    0.96435135696452    0.73702085777177
H          -0.39238798084758    0.65034823911801   -0.84839740549993
