    26
        -50.46926235  Gyration_radius:  2.54945367464 Dipole_moment: 4.554
 S          -0.53634019020276   -0.13154866136554   -0.10255135694935
O          -1.18768928098862    1.01277629894603   -0.72746608097055
O           0.18552335137191    0.29919896222691    1.11303072216643
O          -1.41939621697713   -1.23790458665327    0.16755718194961
O           0.55250953992379   -0.57466434959343   -1.11917266222330
O           0.41673850100214   -2.15710944198235    2.13416834472019
H          -0.48119903013707   -2.48121478585748    2.01781525147399
H           0.37010307042041   -1.20931462027166    1.90999240665169
O          -1.10087077149358   -3.65213191956991   -0.90088639099726
H          -1.50987201719074   -3.65332834960889   -1.76714192050289
H          -1.34182202242071   -2.79713316761194   -0.48648599940472
O           0.89376399899267    2.02216327486718   -2.00450584474883
H           0.00493756463635    1.69617307917344   -1.74257232378477
H           1.37343093755727    1.22481830652049   -2.24744879425774
O          -1.56468679109329    3.27067172317578    0.62075051247251
H          -2.16401264827231    3.09352794457905    1.34740706695943
H           0.13182421107594    3.18518315651179    0.69289945351071
H          -1.59008329516202    2.47283661794038    0.04704511331463
O           1.37514856482499   -2.80009486465378   -0.27122777605708
H           0.63288002890689   -3.35969801961865   -0.57610323185821
H           0.94099498311823   -1.47471000643296   -0.80148393947409
H           1.22309493502555   -2.69165764380917    0.69587960748000
N           1.02243951975308    2.65478395372163    0.55462088515022
H           1.17826383760898    2.56907435925616   -0.48690267384193
H           0.78560286384761    1.65603462397922    0.88564933051646
H           1.80871635586539    3.06326812614433    1.04713313874584
