    26
        -50.46911895  Gyration_radius:  2.45470979277 Dipole_moment: 4.003
 S           0.66781459149002   -2.13703333475449   -0.04710584675981
O          -0.43112273690454   -1.67117026207564    0.78763661705980
O           0.25946692289611   -2.66523728758577   -1.31626635177378
O           1.69889561343332   -1.09719595295099   -0.14555825807106
O           1.34661770818378   -3.34040407621206    0.74297222735881
H           1.43864586625178   -4.00212643372972    0.06457700116836
O           0.42037740987834    2.56117048546047   -0.73473769164435
H           0.68222861725926    3.31292242460043   -1.26656140157526
O          -1.81255359883513   -0.75791677387513   -1.26229715552201
H          -1.38468267306544   -1.14149488967235   -0.46649130387680
H          -1.93150223492910   -1.50310024127772   -1.85605035232396
O          -2.07040748232496    1.62551703804012    0.25188275784033
H          -2.22213129530355    0.87786880065754   -0.34148759672252
H          -1.31540237777874    2.10853427097702   -0.11480693685050
O          -0.97914873381687    0.42091524852291    2.37431704572359
H          -1.55361386848221    0.91545643152730    1.74317315927775
H          -0.94292387035893   -0.48393431520489    2.01487444220338
O           0.52680433660477    0.36131708683485   -2.09323070139096
H           1.09291548222100   -0.23682192390708   -1.57555411540391
H          -0.37179847258538   -0.01141750722764   -2.00352814805000
H           0.47263227995502    1.75655062276871   -1.33436590540791
N           1.30697594417023    1.03818606440373    1.32954936520109
H           0.39382800668495    0.83610958193261    1.88592783937163
H           1.09898817204760    1.78370313052550    0.63695157605426
H           2.07584910709714    1.29640692833135    1.93712323090572
H           1.53324730616646    0.15319488385225    0.78905652302802
