    26
        -50.46309153  Gyration_radius:  2.44671641699 Dipole_moment: 4.779
 S           1.92943179871268   -0.45734131727404   -0.00774657071591
O           1.55574400439907    0.88095088336813    0.39482346334000
O           2.43341019828615   -1.31261319529677    1.02791473261468
O           0.86692753322466   -1.08095044621059   -0.81144018520662
O           3.13718316821556   -0.24305113123923   -1.04507232098407
H           3.66375638762616   -1.03078618794425   -0.94783319273664
O          -0.99679804683236    1.26655522024408    1.47670694424779
H          -0.26066334421906    1.87034471071350    1.60840424150162
O          -1.29454373218395   -2.40420054202332    0.23097654352539
H          -0.50565828598788   -2.15567324477166   -0.27609496414526
H          -1.96343740349804   -1.72808900386140    0.04424448125197
O           1.38424243874149    2.25321261879848   -1.84403250701521
H           2.07065279570017    1.91649312397983   -2.42238419233287
H           1.58839789411661    1.87762361455818   -0.95900221346668
O          -3.07620896800228   -0.18450059186702    0.16624346410454
H          -2.60781535591792    0.34249410398465    0.82879361295694
H          -3.85738951178974   -0.53346405398094    0.59865505676925
O          -0.01167705645351   -1.04604356577632    2.18436689277659
H           0.92073273054666   -1.15925811154968    1.94032203584437
H          -0.63752647970068    0.39506393774037    1.81351337335695
H          -0.50510154909617   -1.71645414124794    1.66718837604715
N          -0.79842208152683    0.86282660114412   -1.16299232687780
H          -0.22625717393984    1.58024124220925   -1.64811908165795
H          -0.91858749105393    1.13304307112693   -0.14583268898443
H          -1.70362767690724    0.68328542484093   -1.58794216020757
H          -0.18676475245936   -0.00970900966554   -1.12366082400795
