    26
        -50.47395398  Gyration_radius:  2.40840773662 Dipole_moment: 3.050
 S          -0.92071255430688   -1.34065201191037    0.67524592448868
O          -1.43592171421947    0.01900926024036    0.76995306911105
O          -0.02143717618924   -1.47457671679511   -0.47725222569121
O          -0.28920773923589   -1.77362202320830    1.90154853002212
O          -2.13849070319483   -2.29066371925795    0.40352692643845
H          -2.41183795224661   -2.07205498445386   -0.50099595305362
O           0.98750683981974    2.13011423917999   -1.03708437098785
H           1.14576020968452    2.91836808940596   -1.55801255771792
O           2.32203469565121   -0.21053112887655   -0.42828863450588
H           2.02990071395593    0.66254486165439   -0.74334854064195
H           1.54949481395550   -0.79334569556535   -0.57825374470866
O          -1.91151915407327   -1.55185056312983   -2.21900820376560
H          -1.06563023591329   -1.52186595299720   -1.71041051844246
H          -1.82095530710568   -2.25619157539882   -2.86347777967590
O           0.18258946165095    1.98560533926631    1.61040794250372
H           0.50917011895343    2.23898088643927    0.72797204195580
H          -0.57583069614644    1.39576764184172    1.42703748327240
O          -1.41979755540877    1.20700676301202   -1.59363306722733
H          -1.65374311009699    0.48549440428327   -2.18762158680533
H          -1.54703463031801    0.83576272782094   -0.69472987664581
H           0.10702396007746    1.77863250865167   -1.32930024021334
N           1.70489350410111   -0.07812643753000    2.11350646247955
H           0.96814546455302   -0.83325990148950    2.16398414734127
H           2.16384836994079   -0.16616712332569    1.15438009795368
H           1.17501840513680    0.84896615513994    2.09541617103889
H           2.36673197143391   -0.14334503253813    2.87843850351664
