    26
        -50.46262737  Gyration_radius:  2.62388528178 Dipole_moment: 2.002
 S           0.97289404109569   -0.88828290702791   -2.16953077466831
O           0.77706247663153    0.39850199916601   -2.79089742937205
O           2.26875614860528   -1.04600160297001   -1.53666124472877
O          -0.12858163260295   -1.22049390600157   -1.25843917070777
O           0.88912413917265   -1.98368204240344   -3.32200826096639
H           1.50198139597798   -1.65334938793860   -3.97160289637668
O          -1.31240206699771    0.23148589238856    2.42379845953960
H          -1.49922770620811   -0.00763767695346    3.33198690205255
O          -3.16881928440046    0.91077248712790    0.55245868139483
H          -3.60365672822197    0.08309126241810    0.33958672968610
H          -2.58781153420681    0.72557018671142    1.31887844911455
O           2.41123869436920   -0.20691317251247    0.89984815925269
H           3.34530266129067   -0.12862238611719    1.09954253329056
H           2.36610768496333   -0.52232989353966   -0.04395022461607
O           0.61819871528698    1.81366579102702    1.20817914317299
H           1.34674081545620    1.16664714638531    1.12538617681307
H          -0.00492932279910    1.42974085653379    1.84732937143903
O           0.11628125507734   -1.67081576831487    1.36895058882794
H          -0.81694415108582   -0.54421187327544    2.02615806764630
H          -0.05181276760790   -1.68780465643489    0.40620147633210
H           1.02169666366655   -1.33011242837734    1.43914460150964
N          -0.91082420272966    1.24966422423565   -0.87063792911662
H          -1.89171084460540    1.32375809903217   -0.52887231564540
H          -0.67488750422827    0.23099411704139   -1.02957715135399
H          -0.72673109327721    1.71886010359133   -1.75468072778885
H          -0.25704585259891    1.60750556621960   -0.11059121474090
