    26
        -50.46911891  Gyration_radius:  2.45471370776 Dipole_moment: 4.002
 S           0.06925864851686   -2.19005321457173    0.46241787294735
O          -1.10369629345844   -1.36577504638765    0.71986612937097
O           0.04153815228819   -2.87469827950002   -0.79737687676739
O           1.29099374838910   -1.40673244205698    0.68079757577450
O           0.07590500258066   -3.31708387485316    1.58605105953126
H           0.23865470790067   -4.10694219657989    1.07984758825166
O           1.30085196206682    2.23305017641800   -0.77371464194708
H           1.92470040361615    2.79752173204389   -1.23062133336448
O          -1.34424454005292   -0.63687650257857   -1.80118474069498
H          -1.35478999887295   -0.92730794920777   -0.86360468344851
H          -1.42052756744161   -1.44939696376578   -2.30715886747238
O          -1.52831694895561    2.00687266766508   -0.79244505780930
H          -1.63429658194524    1.19817273147490   -1.31094653401573
H          -0.59511021857462    2.25356343082981   -0.87008222915680
O          -1.64688260038711    1.06785820893003    1.70775551049311
H          -1.80023675933643    1.52579597059474    0.84772460207380
H          -1.71122985666284    0.11924005702685    1.49482333323126
O           1.33814193170375   -0.17428633013725   -1.72221956512763
H           0.40748824279184   -0.34323556887626   -1.96679356058907
H           1.36429046117120    1.32930193651032   -1.20833864836499
H           1.49924748850945   -0.75280430437392   -0.95701726542540
N           0.93935600948795    1.01676445788711    1.62546253315194
H          -0.13406654638626    1.10827143889702    1.77968483110347
H           1.20031221674476    1.63314192441849    0.83122915142163
H           1.46634608283343    1.24108607816194    2.46149317761899
H           1.11631285345854    0.01455186207059    1.32435064925248
