    26
        -50.46262727  Gyration_radius:  2.62393356958 Dipole_moment: 2.003
 S           1.08541557903480    2.26240734286537   -0.38190228887724
O           1.20621022056489    1.97729544801221   -1.79916291628705
O          -0.14568368867823    2.92070188792704   -0.01946828378596
O           1.32252719522036    1.07073583705714    0.44115973502812
O           2.27440904580501    3.25406250766326   -0.01042079948292
H           2.00686812706136    4.06834283344658   -0.42521427148305
O          -0.45664252325693   -2.65224659875237    0.63789704498247
H          -0.29906006706972   -3.59491867371853    0.57950806528401
O          -0.99996333249106   -1.27684140357383    2.92352597534249
H          -0.87275729800879   -1.87877413406730    2.16150715111502
H          -0.16360058510419   -1.25714468743023    3.39209518758744
O           0.16224265433903   -0.25546470503633   -2.56456578514552
H           0.07969203323018   -0.19713356863740   -3.51761230599225
H           0.55718975295817    0.61286731197705   -2.27771368835756
O          -1.90188361655280   -0.84446867815340   -0.89572902640656
H          -1.58279615943354   -1.65443697906399   -0.46407298345924
H          -1.24016020157004   -0.63103821487331   -1.58336419775397
O           1.54874528990790   -1.43089422519849   -0.48435900560098
H           0.35709721238570   -2.20812867458314    0.25589780943294
H           1.21588163988810   -1.23317062386335   -1.37366380195043
H           1.64617306816974   -0.55036938867647   -0.07131605049734
N          -1.18266535792576    0.70824915314015    1.11658166440515
H          -1.59531884370673    0.17825200296669    0.29080119189788
H          -0.15079372373027    0.83383364001023    0.92138521029055
H          -1.57110358316420    1.64715853908921    1.17278900534963
H          -1.30002282787177    0.13112402149291    1.97541735436717
