    26
        -50.45337029  Gyration_radius:  2.64369941625 Dipole_moment: 5.898
 S          -1.10783446149976   -2.40849524986308   -0.00018742400114
O          -0.93175827171480   -2.48405323938092    1.43814394996597
O          -2.35129147494024   -1.78789616352706   -0.39359514398246
O           0.06064635974808   -1.79233416500623   -0.64493344536803
O          -1.13601244690897   -3.89919157873540   -0.55669826748053
H          -1.97395581888041   -4.23651151138278   -0.25346394192667
O           1.39723900273597    2.11770756916125   -0.67465717345812
H           1.64096014928275    2.84939672968547   -1.24271261923002
O          -2.17328315297923    0.76045342266250   -1.19350103298467
H          -2.35248173271798   -0.17465555387829   -0.96189791919187
H          -2.00631513200384    1.21342245116564   -0.35949637573442
O          -0.71496227559825    2.06930269530679    0.98032639461495
H           0.02020631231253    2.23053329617071    0.34571718896494
H          -0.79560346273512    2.85182024195045    1.52656608712606
O           2.93599102979851    0.80840486509143    1.16999017072539
H           3.61747107784569    0.31858756655117    0.70711920735460
H           2.49143853734307    1.36494820587076    0.49996016129354
O           0.25780877733391    0.40590471039784   -2.19409674717510
H           0.32832017040416   -0.49727911461385   -1.83842791254109
H          -0.68988567115562    0.63159335765302   -2.03397823790443
H           1.00244746853888    1.41305870850897   -1.29660069578479
N           0.51174373117793   -0.33204493666737    1.43033491304954
H           0.09232290103377   -1.08133417168238    2.00534983642963
H           0.46581525569503   -0.79542021604418    0.47183214713916
H          -0.08091899003232    0.51870191783917    1.42586097337503
H           1.49189209792335   -0.06461982723277    1.64304589673725
