    26
        -50.47395400  Gyration_radius:  2.40840209673 Dipole_moment: 3.050
 S          -0.88824088722743    0.76382941976419   -1.31482982407371
O          -1.49297258825164   -0.18650033291404   -0.37355567749998
O           0.23716057111181    1.45324020610182   -0.69737724972853
O          -0.52360487707633    0.12673945556638   -2.56030845679943
O          -1.98607859823786    1.83816460685214   -1.63098433919975
H          -2.31461341590551    2.10462885328652   -0.75826732586870
O           1.36826488631549   -0.74163509755280    2.04073382319191
H           1.77481494071718   -0.81633899569791    2.90497558441282
O           2.54041462832290    0.13393574369464   -0.31262650405513
H           1.85071793050854    0.80267680354006   -0.49655158818450
H           2.32982732477824   -0.18916584168827    0.58223676814536
O          -0.10390152973473   -2.34394239127579    0.33926993188155
H           0.42532201212860   -1.95309788609792    1.05624860221673
H          -0.77197105412572   -1.65917993612765    0.13011237938520
O          -2.71927259842879    1.61338666967320    0.99351997398947
H          -2.31707950925513    0.79752918550579    0.60925907108885
H          -3.63898450958409    1.40925369694129    1.17267342933808
O          -0.00948732181677    1.50511842736704    1.93599050072621
H           0.80599792022685    0.07516797156436    2.07031450939202
H           0.13642263734634    1.61584173532559    0.97240797316949
H          -0.95878961101324    1.62227975846489    2.05087427358417
N           1.26893274935295   -1.62259446049167   -1.77117646046788
H           1.70288880906927   -2.25898405184320   -2.43002073270501
H           0.74805069070622   -2.12372191251380   -0.98638176468896
H           1.96962337534156   -0.97849541443847   -1.28662320653835
H           0.56655800488440   -0.98813621299478   -2.23991370098369
