    26
        -50.47395397  Gyration_radius:  2.40842404402 Dipole_moment: 3.049
 S           0.25050147311358   -1.67263494108056    0.49040832335768
O          -1.07664200198705   -1.06812220295609    0.32265258815527
O           1.22979869165401   -1.00628930412712   -0.35809889347234
O           0.65617697790572   -1.69966940722630    1.87772634656870
O           0.12977316708153   -3.15688471221869   -0.00133981825228
H          -0.30644107667619   -3.08527402424308   -0.86462717701793
O          -0.15588124212989    2.34131336679932   -1.04062320514707
H          -0.22183654275611    3.08455253615466   -1.64145247572687
O          -1.54633155119299   -2.20027046570931   -1.93780762429406
H          -2.41382382841331   -2.60429269792845   -2.00018642324641
H          -1.53893607651351   -1.67067066965909   -1.10441821740643
O           2.09600268276884    1.44458235082471    0.30237636482298
H           2.01081483941840    0.52289484742618   -0.01392582171436
H           1.42121223685733    1.93508713085192   -0.20117997607888
O          -1.47418588756657    1.41391206383756    1.20232688192100
H          -1.14060118051084    1.90360962355124    0.43042086864507
H          -1.52478712733566    0.48489836214929    0.89679808124854
O           0.06425542187332    0.12147831349064   -2.44796178659424
H          -0.62802157178523   -0.51257397079126   -2.66425563533955
H          -0.14759644015869    1.52774990479342   -1.60833107630063
H           0.60248442639901   -0.32721556507065   -1.76165990736027
N           0.75168153236102    0.85802741625575    2.46532944668758
H          -0.20974745010738    1.18819787006701    2.14120040472824
H           0.98480406876556    1.17046798239612    3.40098779110444
H           0.74771266144294   -0.19555205696626    2.39094264693740
H           1.43961378746099    1.20267823936052    1.72469830375086
