    26
        -50.47250181  Gyration_radius:  2.4874544194 Dipole_moment: 2.904
 S          -0.66485788448489   -1.71514238920088    1.32665891059285
O           0.65842417632662   -1.79354963503718    1.91489007305171
O          -1.48860489617417   -0.69708009370337    1.96746338174428
O          -0.64746762316031   -1.57090265171586   -0.11639508065668
O          -1.36414802723153   -3.10569057135941    1.62152688760438
H          -1.23678469501653   -3.17882244684858    2.56112972715848
O           0.74578675638567    1.08036107412175   -2.42223155440543
H           1.17916912380799    1.24052015462839   -3.26069657417463
O          -1.78621422500088    0.15048615486843   -1.85657368204771
H          -1.50087212545918   -0.65759568587265   -1.39146169360221
H          -0.97127572118897    0.51056130596222   -2.25197697619332
O           0.77884571061852    2.22782029345996    0.08131119453860
H           0.83930237913463    1.99595815255385   -0.86304640923785
H           1.33005805442994    1.56822726302279    0.54361964475377
O           2.18070979968043    0.17436778709568    1.21375635745122
H           1.59301075795570   -0.56535047659985    1.52002052283505
H           2.85549034181579    0.27110759297367    1.88730918694312
O           1.71188426994711   -1.03550542107086   -1.24992058837759
H           2.17468870142902   -0.67732968163858   -0.47829681204807
H           0.88077996925485   -1.40266990667624   -0.88712629537802
H           1.15425838373297    0.24683477608027   -2.04684787605643
N          -1.70493442162267    1.41056328092063    0.44827849006239
H          -1.90602008605648    1.00185076991856   -0.51406407333447
H          -0.73841533721877    1.84888787337583    0.39764704048727
H          -2.40814043126991    2.08167866690221    0.73470028035621
H          -1.66467293064066    0.59041379384017    1.12032591793215
