    26
        -50.47126072  Gyration_radius:  2.42904406231 Dipole_moment: 4.301
 S           0.29001985196094   -1.88717633573129    0.07668033318587
O          -1.06908271242951   -1.38521387566323    0.25094004740356
O           0.51907988377088   -2.31840040180098   -1.29447500234887
O           1.28484693760214   -0.95368495286551    0.55444758201385
O           0.41179759313065   -3.18105656906660    0.97352473013324
H          -0.09496815333398   -3.81526130687925    0.47758944349294
O           0.04614099914971    2.47456237461261    0.32726925128727
H          -0.03314309808471    3.37613088800860    0.63991140826345
O          -1.96724983712675   -0.43263813870687    2.56548693910239
H          -2.81924995700915   -0.04165043110252    2.36484718153445
H          -1.67703618729490   -0.88778684302405    1.74862883144294
O          -1.54336648260355    0.82447229182838   -1.17286874857441
H          -1.52572691724662    0.01471198406193   -0.62222595802938
H          -1.10708025602389    1.51379262743368   -0.63722701332020
O           2.13850079905921    1.17506376506152   -0.88718485349489
H           1.52144253483286    1.81801293359769   -0.48952318091967
H           2.10934153537583    0.40971738473483   -0.28433871446629
O           0.40689535471563    0.87442476196558    2.33006825540632
H           0.16908813906931    1.90356972077019    1.14577728065712
H          -0.44034349952380    0.49515756749824    2.63031929918662
H           0.83911251837999    0.15613112774354    1.83169957018520
N           0.51276217676462   -0.02490184638391   -2.54829000591529
H           0.55438649675393   -1.01727634352219   -2.18575589737009
H           0.59533071899200    0.01452241408715   -3.55775943800816
H          -0.40748279007479    0.37945792938291   -2.19028468645714
H           1.28598437119134    0.51531927396055   -2.04725664439226
