    26
        -50.45337041  Gyration_radius:  2.64370355816 Dipole_moment: 5.898
 S          -0.10071477878783   -2.50325375532755    0.86730063171896
O           0.14194251591953   -2.03890322384438    2.22048001843097
O          -1.50021653411800   -2.52425827322385    0.51082290660945
O           0.71880503097399   -1.76179470057039   -0.10178097927285
O           0.42443802664951   -4.00281960178070    0.77553449714950
H          -0.21021886467525   -4.49500714635551    1.28824249883304
O           0.45559249083465    2.12967135603385   -1.46609570228944
H           0.38061798694350    2.67239077858350   -2.25177368615470
O          -2.33878290879434   -0.48538812881454   -1.00753864736202
H          -2.32831027679813    0.24280718279874   -0.37644945935356
H          -2.13822576102993   -1.29358547727931   -0.49101663036622
O          -1.41766897747783    1.88488354906873    0.44034539925569
H          -1.77249312324872    2.72148401478188    0.74267752147339
H          -0.82304785674067    2.07763710621560   -0.32022026514284
O           2.44209745635705    2.12241293478344    0.41523858893924
H           3.24278434895231    1.78199153125939    0.01330915979719
H           1.79527675975109    2.23607057662083   -0.30928502767035
O           0.00521471114022   -0.26830798906935   -2.23046329952868
H          -0.95030321505276   -0.35110175604093   -1.99632582963861
H           0.33886089915211    1.16976746915624   -1.78887821460850
H           0.42873303727334   -0.92033481207509   -1.64504684628984
N           0.64945838253395    0.35462237902384    1.36747557791341
H           0.56936602619118   -0.26355029235021    2.19181349365836
H           0.75052425617091   -0.38016463876205    0.60236322804869
H          -0.22331912052635    0.89180753773923    1.21037751381863
H           1.45958948842543    1.00292338942714    1.33889354203826
