    26
        -50.45337026  Gyration_radius:  2.64375106992 Dipole_moment: 5.899
 S          -1.87461721569066   -1.37499487668087   -1.27443802054336
O          -2.37664292448483   -0.12401930196390   -1.79318053063920
O          -0.85520918755594   -1.97824324916660   -2.11258252562945
O          -1.41894595326294   -1.26740416253459    0.11889478883890
O          -3.10527128230319   -2.38256570001202   -1.21949823484346
H          -3.48141891177417   -2.32581079451942   -2.09309199766039
O           1.38757196699457    1.20791842734264    1.87303391963787
H           1.52660346688085    1.85167601667977    2.56851892526917
O           2.62974855687170   -1.20255088236833    1.51036579656795
H           2.27780590864254   -0.31974621679134    1.74073606647905
H           2.36009245078167   -1.79439469033587    2.21433342263000
O          -1.40506039655854    2.08501894522704   -0.63493649006483
H          -0.50417511092561    2.10189431098289   -0.97663968742582
H          -1.85718185469194    1.35142781150585   -1.10142868200611
O           1.49516457183140    1.71477694237910   -0.76027164984591
H           1.49905942818566    1.67288535794683    0.22331323609822
H           2.26941314695229    2.21161922894039   -1.02661016403495
O          -1.14425514136538    0.88689283067828    1.71736316044890
H          -1.37718340925694    0.01366944373304    1.35623802397577
H           0.38266140249292    1.03701940888390    1.86029798423575
H          -1.35326993792159    1.49664980727329    0.96954766947708
N           1.02683259350920   -0.97607742722948   -0.64016965703920
H           1.78229008707440   -1.32357421823714   -0.01890263504225
H           0.79979181660515   -1.54724546129486   -1.47102293923507
H           0.09232444649213   -1.02307493787031   -0.13029942245655
H           1.22387146252438    0.00825337741862   -0.89957034718477
