    26
        -50.46214754  Gyration_radius:  2.46092665498 Dipole_moment: 6.848
 S           0.00532376719510   -2.02038004556257    0.27795198496735
O           1.36527235775704   -1.74909575346814    0.75077805778636
O          -0.95599070863010   -1.29098052665290    1.09792604201897
O          -0.17191143206115   -1.79228715458535   -1.12954013088572
O          -0.24113367142943   -3.55808725538947    0.53838577402561
H           0.01338024940061   -3.63564318750982    1.45091911919346
O           1.00656979463059    1.98636355278440   -0.74606723811258
H           1.25807940077810    2.81653447617272   -1.15174380372777
O          -1.77476115534253    0.03825096226335   -2.63659176318644
H          -1.99361388602352    0.54735689273315   -1.83857904738448
H          -1.54495874866123   -0.84202999558242   -2.31190525126533
O          -1.58827552559303    1.09577134319056   -0.05442598936495
H          -0.73142871739617    1.47231820936963   -0.30456083834671
H          -1.42138073033477    0.18077174519539    0.23701159192608
O          -0.89240393877780    0.84146381843134    2.69613973230437
H          -1.42812852570655    1.39530414909117    2.11168466988663
H          -1.06616171738363   -0.06422653776423    2.37336622890749
O           0.91536482454495    0.19556669840030   -2.57354254422764
H           0.00790220703931    0.32832344743709   -2.92104331645502
H           1.03785140599429    1.29172439406213   -1.48504419535854
H           0.82497592427729   -0.64610682389126   -2.09114565154977
N           1.49541775439665    0.69786925023311    1.55511373203000
H           1.50055220153585   -0.33159999342986    1.24151519851934
H           1.45023723173562    1.28575535239547    0.69445721782897
H           0.60569894670939    0.84852283845624    2.11754958394008
H           2.32352266134181    0.90854016362016    2.10139081652575
