    26
        -50.47126102  Gyration_radius:  2.42912769429 Dipole_moment: 4.302
 S          -0.42611886817174   -1.25068672120410    1.38038946490976
O           0.36770258288915   -1.71209768286746    0.24618201680725
O           0.42301236374808   -0.91019634237512    2.51249501761995
O          -1.34056145502244   -0.19249133110850    1.01509071217970
O          -1.30839317836046   -2.47594522461004    1.84264310050822
H          -0.66755938910483   -3.03101023810710    2.27417228455161
O          -0.03928464848688    1.71359495658604   -1.81543547210529
H          -0.13739681084403    2.20908403032981   -2.62889474927529
O          -0.71527660090197   -2.40823921067504   -2.08086316643054
H           0.02436777862964   -2.52304016347540   -2.67988952338339
H          -0.32746571236852   -2.26493505761298   -1.19337734070917
O          -0.59668317667571    2.40222838884022    0.78431322878611
H          -1.10792264864608    1.59266074329488    0.96660319709730
H          -0.43738057576727    2.37444363827249   -0.17797150214142
O           1.96432860400520    0.19055633327631   -0.73645395086573
H           1.45843038235139   -0.60540056115118   -0.47246352126567
H           1.34302639148012    0.73400470851760   -1.25710347292573
O          -1.94354943600433   -0.02778766166032   -1.60672711254157
H          -1.91371441133375   -0.12014987155142   -0.63628226055789
H          -0.79380536515811    1.04921424109853   -1.79876622353435
H          -1.66066332736272   -0.89651795075232   -1.94889367111371
N           1.59630667385005    1.25070651404155    1.62586141351615
H           1.95821232253366    0.89321876693657    0.68777633448451
H           2.31143248044336    1.71464238817344    2.17424901162218
H           0.76934079767548    1.88720089032871    1.39879034724487
H           1.19961522660178    0.40694241745380    2.12455581752064
