    26
        -50.46214755  Gyration_radius:  2.46094108593 Dipole_moment: 6.848
 S           1.49593361850465    1.08689018312254    0.86020943349459
O           0.24933569153610    1.05388906315852    1.61741615068295
O           2.14400475519378   -0.22590293429714    0.91646026703978
O           1.32709262221414    1.58959652011008   -0.47520996905969
O           2.46651570596351    2.07756119772215    1.61497133877465
H           2.61466676008005    1.60929295551459    2.42877715944131
O          -0.76760174616087   -1.62744050228455   -1.50906664742703
H          -1.19193451420386   -2.15142460765538   -2.18906051606131
O          -1.44403706063523   -0.82913279820632    2.44957220441180
H          -0.85101589223454   -0.05266074606669    2.45927063236308
H          -2.16130462298953   -0.55718738771949    1.86057470930403
O          -0.96963331371156    2.21364230618021   -2.06443235225828
H          -0.18572913480263    2.44884375375375   -1.55126428329049
H          -1.56258176109178    1.78215623747691   -1.42718163024218
O          -1.85855346269735    0.51983134268234   -0.02466440729953
H          -1.08722440876152    0.83355829989278    0.48192402482954
H          -1.55806635351208   -0.22990500266147   -0.55960200662533
O           0.67039614664934    0.15658968100625   -2.65113308235354
H          -0.16359699452838   -0.97265611932315   -1.99487550660831
H           0.00513457329089    0.85919376640020   -2.81136385651904
H           1.20224434444113    0.54305344072076   -1.93209252317446
N           0.32535678175678   -2.05446394717674    0.90299560035709
H          -0.07259630627167   -2.05657964257555   -0.06135803181278
H           1.12776013704860   -1.33741791081953    0.91831041334673
H          -0.41852131272738   -1.70496653901204    1.57764716681862
H           0.66395576764660   -2.97436061992492    1.16317571186591
