    26
        -50.47250315  Gyration_radius:  2.4872093702 Dipole_moment: 2.886
 S          -1.36003416605409   -0.06277635552865   -1.81396917259223
O          -0.22834033033560    0.14499479467274   -2.69697492282123
O          -1.51677233185403   -1.46476513214931   -1.44633032238233
O          -1.35358843200858    0.80537332470051   -0.65218018149810
O          -2.64837099273979    0.32847491830341   -2.64870468009879
H          -2.50594920889222   -0.16722803750402   -3.44767058808787
O           1.05111383954430    1.22054780992304    2.23462945137888
H           1.45892492976041    1.85007591570836    2.82950881361200
O           1.79479992843433   -1.14256224519798    1.03192432440399
H           1.67831256350443   -0.34763850733521    1.58304004146497
H           1.96291918829312   -0.80826164634850    0.13059384526354
O          -1.57068122720100    0.40114650748989    2.00773515408843
H          -0.70851288042140    0.76792567421500    2.27654106689397
H          -1.70288350051995    0.71984864170727    1.09566570530194
O           2.03073773832955   -0.02694231591910   -1.45198272861984
H           2.69939690070039   -0.25780906635013   -2.09850768108922
H           1.17052707148409    0.00244007488041   -1.94741054990945
O           0.89227448537523    2.17450588473554   -0.18378814657960
H           1.51215399490530    1.62573075927211   -0.68636037455021
H           0.00956268783020    1.82979655253203   -0.42695077650434
H           1.00782568670487    1.66476489279148    1.33829490831942
N          -0.73980119787838   -1.88223166195859    1.00683659907576
H          -1.17213252653286   -1.07100360378010    1.54410531232688
H           0.31184030254687   -1.73191150755328    1.02065418770469
H          -0.99723710129887   -2.78139228846056    1.39679791907764
H          -1.07608540167727   -1.79110339284704    0.00450279582289
