    26
        -50.47250260  Gyration_radius:  2.48741295208 Dipole_moment: 2.900
 S           1.39236895258628   -1.73271910466665    0.44996307040394
O           1.03630816574370   -1.67718297823598    1.85477953070357
O           0.43007002308360   -2.50353202635140   -0.32817264583255
O           1.64330257794217   -0.42909418512681   -0.13409762137643
O           2.76411180391473   -2.52132401473486    0.37200458227757
H           2.55651026308125   -3.29970318995638    0.87741587581690
O          -0.51621178927344    2.63712538990250   -0.60810929264940
H          -0.52859655006787    3.59438366554006   -0.60153477947558
O          -2.27913148744584    0.62105737013016    0.03550355767578
H          -1.81851984785961    1.44536295376826   -0.20436514178799
H          -1.89752981019844    0.35359732984345    0.89308275922986
O           0.73075532391835    0.87044592810069   -2.31731447163158
H           0.33020182679669    1.63696498549392   -1.86783463929999
H           1.30554492861487    0.46027082540284   -1.64488947817472
O          -0.94386531234984   -0.08006632607374    2.31386171530289
H          -0.20795522374038   -0.72504511247566    2.14433059265041
H          -1.35820560397301   -0.36161093645773    3.13082836863837
O           0.95609656626017    1.70027736152830    1.32582581474146
H           1.37582078489739    0.95458936001828    0.85159577929000
H           0.08109643344981    2.35658643565456    0.14485257674330
H           0.31513673022599    1.27962509959255    1.91751211926501
N          -1.09459878375345   -0.93089955635368   -1.74204220681128
H          -1.69398989346239   -0.38930353874436   -1.05180984153215
H          -1.65649284566939   -1.39142172106587   -2.44849993736404
H          -0.40844330565843   -0.23462072836333   -2.16357643937838
H          -0.51378390706062   -1.63376324636188   -1.19930982742323
