    26
        -50.46361293  Gyration_radius:  2.49246407449 Dipole_moment: 6.636
 S           0.41525304805443   -2.08164593043497    1.01618413516835
O          -0.69448778039821   -1.14332586856107    1.03387773721765
O           0.60199369650806   -2.75515651435183   -0.24695763684646
O           1.64366433691324   -1.44654642762907    1.49610514354138
O           0.05514960766948   -3.21263977548578    2.06868892480232
H           0.58173680524742   -3.93542079846768    1.74436334831089
O           1.07590656602711    1.29932755522894   -1.56758776389531
H           1.65399316784940    1.54396550731749   -2.29109582555889
O          -2.24532078318112   -0.50801996579076   -1.08679979750068
H          -2.19797208671981    0.45205176031235   -0.97603958381521
H          -1.84495084657519   -0.87765455930825   -0.27912944245309
O          -1.40512160710650    2.19458562638237   -0.82688789784587
H          -1.75875557964760    2.83373577146130   -1.44639919628581
H          -0.51703955463909    1.94205279144909   -1.14804611566244
O          -0.97136981958731    1.39244256783567    1.81290869929397
H          -1.36292638163342    1.78032050666669    1.01584392069910
H          -1.05979263010499    0.42393292461419    1.70012922273722
O           0.15319332176555   -0.98804663781565   -2.16671955701501
H           0.41751130762919   -1.70136350808289   -1.54790275062611
H          -0.81067145249755   -0.88225350424266   -1.99884059663384
H           0.73754584692572    0.35838668757100   -1.80012386630172
N           1.53133827833273    1.08788553811646    1.10186188593361
H           1.64030174103153    0.03264471353426    1.29419285656203
H           1.50968791214102    1.22458690603153    0.07130218330209
H           0.57126836990976    1.35139697365421    1.49015378813778
H           2.27986451609187    1.61475766999307    1.53691819473369
