    26
        -50.46598147  Gyration_radius:  2.54753341064 Dipole_moment: 2.421
 S          -1.15455303460329   -0.69981638553511   -1.74674932274820
O          -1.59676651994743   -0.19792189050729   -0.44659627170149
O          -1.16422985557405    0.31881466396427   -2.76977135044580
O           0.09597677171192   -1.42585736664868   -1.62766240772573
O          -2.23711436578829   -1.77675793013983   -2.18574727717821
H          -2.91454273961319   -1.22265202083489   -2.55805174322502
O           2.29298756200584    0.37383724649434    1.00713098448630
H           2.96143985808589    0.50220344237817    0.33245063728792
O          -0.07643901981585    1.13314531546305    2.89503275780670
H           0.86417780483400    0.97162352229155    3.00408137988102
H          -0.16251007277079    1.60419390588430    2.05337316791741
O          -1.31095782256415   -1.13599575012922    2.05653708635258
H          -1.67874441483289   -0.80806673626555    1.21419309148522
H          -1.01168225935253   -0.33318897900932    2.53289723469964
O           0.74953130632635    2.09444315939424   -2.39259299389506
H           0.48663227778711    2.86764331908340   -2.89507281355463
H           0.09952664265986    1.39279252082296   -2.62452391157009
O           0.15957642015592    1.66901402226880    0.17595430330339
H           0.43817875421121    2.00787510853968   -0.70049493925805
H          -0.54602657927124    1.01811183089653   -0.03184176283756
H           1.51124916460546    0.91554347183840    0.71030871031150
N           0.85674893414010   -1.88116278510384    0.81266769100680
H          -0.01223680447593   -1.69642469996693    1.41824415194288
H           0.54537334109729   -1.78530978090651   -0.20220777792345
H           1.54685910542615   -1.11068331003748    0.98194403999924
H           1.25754554555843   -2.79540386421586    0.98649734556921
