    26
        -50.46598070  Gyration_radius:  2.54744881164 Dipole_moment: 2.427
 S           1.33767337154629   -1.14813446625441    1.32907504601372
O           0.72162881975017   -1.50396966048985    0.05177282201873
O           2.69574130867472   -0.68084080957385    1.18184692137797
O           0.47540371820871   -0.26932547424164    2.09682029450005
O           1.42431878609053   -2.49975651559969    2.15973171181490
H           2.22623674428036   -2.87992390542049    1.81777892013766
O          -1.27336902453898    2.15601618004602   -0.36632656935701
H          -0.87315904138044    2.88855804642586    0.10446411804274
O          -1.83754303203233   -1.83645471153674   -0.70183376581902
H          -1.86641206758106   -1.31426364349789   -1.53094851069836
H          -0.88818996696637   -1.97162909796810   -0.52070546104273
O          -1.63678755878506    0.05074518298896   -2.64475021376006
H          -2.09129896682877    0.85129311969604   -2.37037370025086
H          -0.69466248406115    0.22791898261765   -2.50794036145205
O           2.78539225804931    1.70164366932704    0.05334612185178
H           3.67838300299083    1.79410092637661   -0.28347183292119
H           2.78270002527116    0.86669675108512    0.57438680259834
O           0.71932718136360    0.73902066806799   -1.33627163795434
H           0.74087776393013   -0.13051109584747   -0.87995007642497
H          -0.51330357736000    1.66015817272342   -0.77761465054813
H           1.50675513903468    1.20967452390062   -0.99118096023646
N          -1.91455077759775    0.02301113769062    1.12519069623779
H          -1.83556036828980    0.92592437009529    0.59875745986458
H          -2.02943038046531   -0.77481053708903    0.41369513612457
H          -0.97293740008796   -0.12812007130721    1.60124752113633
H          -2.66723349320533    0.04297826778668    1.80325416873811
