    26
        -50.47083115  Gyration_radius:  2.45210834635 Dipole_moment: 3.532
 S          -1.78799728699587   -0.76929230171891    0.76055382709470
O          -0.50412058029585   -1.45198597389329    0.90697823466386
O          -1.71886209578835    0.56821101134601    1.34508256617590
O          -2.28633443518715   -0.78994660583469   -0.58840844074805
O          -2.82381513060270   -1.57803400756142    1.64120129218438
H          -2.46252815261890   -1.53269285476945    2.52098770111472
O           0.63331824150332    1.35430493623836   -1.55743453665906
H          -0.29263040070964    1.67320656484188   -1.63166443615361
O           2.90057168463053   -0.91299318988998   -0.96655748519082
H           2.98415618601027   -0.05390905763286   -1.38683961697741
H           2.09672105187662   -1.30957069384591   -1.33271106014784
O          -1.98887173917944    1.77199687426252   -1.23211187828166
H          -2.20560385206404    2.14232526862074   -0.37287536175350
H          -2.21445375062438    0.82441685392516   -1.14530549878122
O           2.03781971955354   -0.79293036453489    1.60526453844484
H           1.20326685497203   -1.28157426483879    1.50125511783362
H           2.52968791839532   -0.94447061172816    0.77185459879102
O           0.23838538095090   -1.33329127497243   -1.60969842897144
H          -0.01994060307367   -1.46570131842454   -0.66995484181485
H          -0.57698499633097   -1.47546971146860   -2.09817731538571
H           0.56353837888537    0.38803589946871   -1.70500889777491
N           0.75174447288215    1.42174657480323    1.06474558969558
H           1.37490520344486    0.61248964986122    1.38281316422449
H          -0.24565665274067    1.14470011007012    1.27350241639075
H           0.99537407843593    2.29325588227895    1.52133336731537
H           0.81831050468042    1.49717259543327    0.00117537471345
