    26
        -50.47116903  Gyration_radius:  2.45860980937 Dipole_moment: 2.523
 S          -0.75597844755084   -2.13313505098360    0.01548542520088
O           0.09457453241435   -2.84479633912699   -0.89462825638336
O          -0.04200246425425   -1.68157191934087    1.21966003257333
O          -1.49668885306069   -1.02915449413709   -0.57183759123703
O          -1.83642561787802   -3.18180096685370    0.52947857005094
H          -1.56057285902802   -3.98009850217743    0.09036931393584
O           0.09153811965343    2.41063311662390   -1.27254868898568
H           0.14624913186932    3.05706552723240   -1.97664236653212
O           2.05760866181581   -0.93978680122377   -0.22551784324473
H           2.42266608974686   -1.72950212455704   -0.63158973890278
H           1.33463404085824   -1.26926518140044    0.34800905711840
O           1.82297420298766    1.69077010233198    0.72386857439744
H           1.32229693597043    2.09800189885442   -0.00860123378458
H           2.15957791665087    0.85006665742660    0.37919670213351
O          -2.04175813476576    1.48372532963977    0.21281697429294
H          -2.05995098266593    0.57216155256650   -0.14011717556006
H          -1.43965424411635    1.97237555579406   -0.37723048276427
O           0.35344760709484   -0.00223415032539   -2.19217536058892
H           1.11329665634174   -0.35478794582114   -1.69857861407579
H          -0.41518912607978   -0.45846796386064   -1.80150445083464
H           0.18430262175743    1.51176420204010   -1.70592777605502
N          -0.29416270396315    0.80238795073609    2.03223490052411
H          -0.43062885655485    0.97955412358788    3.02021829121154
H           0.60732987197068    1.22884345143190    1.66633235296414
H          -0.24315178418018   -0.23214281908779    1.82891310153200
H          -1.09433233503384    1.17939479063095    1.43031629300946
