    26
        -50.46926236  Gyration_radius:  2.54937203123 Dipole_moment: 4.549
 S           0.13094853049014    0.31817146288557   -0.44395195545035
O           1.43317501565651    0.93059644600331   -0.21289033129146
O           0.41350367365174   -1.20890067819166   -0.50365449534048
O          -0.74275603935696    0.53011330001563    0.72905439126177
O          -0.50890978952191    0.73589521068755   -1.66575669073884
O          -1.13742901333178   -0.94419206957054   -3.62894889346118
H          -0.91263025624536   -0.23112908727749   -2.99499466073401
H          -0.36341961184783   -1.06457526587573   -4.18041742129802
O          -3.01125742407244   -0.03845417193145   -0.55995057955389
H          -2.27904336305153    0.23362557224422    0.02357316720395
H          -2.89468022292089    0.48323374106991   -1.35935944058526
O           2.52220207426078   -0.96793509903607    1.26775742272001
H           2.33962578309820   -0.26225376763761    0.60935758684264
H           2.13900487416511   -1.75828707771023    0.87607799080787
O           1.76817821616031    2.73958895042746    1.70358433778178
H           1.23581069913536    3.50760983908022    1.49094187298055
H           1.26245352556685    1.42186896515879    2.65025728002287
H           1.76395845930810    2.17519347588836    0.89876094229564
O          -1.72591724532614   -2.24125161087978   -1.34333959028405
H          -0.44536760407001   -1.68256067112827   -0.81996940695164
H          -2.38446494387854   -1.59282184052727   -1.00276283676334
H          -1.63379440064926   -2.02354906318590   -2.29270452665459
N           0.85423410059277    0.46228723986810    2.73049146627601
H           1.58264876648788   -0.21884586273929    2.38169447854718
H           0.07573188187858    0.44668917659691    1.98412241371967
H           0.51819430380371    0.24988288580298    3.66302750863668
