    26
        -50.46926193  Gyration_radius:  2.54918440207 Dipole_moment: 4.551
 S          -0.11028356651592   -0.38276263311320   -0.39500854525220
O          -0.03393539427730   -0.83962696748205    1.08841144149067
O          -1.53470567873362   -0.34271797386831   -0.70113571609031
O           0.45394298126230    0.98261802246319   -0.43562060240145
O           0.64427653665032   -1.29450765087563   -1.21728227977206
O           2.99589543784395    0.18292741830196   -0.61151383338593
H           2.92089749359174   -0.48890199668449   -1.29560081777295
H           2.12422698954686    0.61947670037407   -0.59521001536035
O           1.98919397926357   -3.36780034951630   -0.23501421768528
H           1.37953354102147   -4.09970194709089   -0.13322457536036
H           1.49655920218738   -2.66668237660792   -0.71098215349739
O          -2.44307333869042    0.38661609490041    1.67080961445425
H          -1.82805314783054   -0.06369458509186    2.25718728544297
H          -2.29718272388038   -0.03974575466459    0.79805111771549
O          -2.61667321835298    1.78256263607624   -1.87097809901564
H          -2.33665486609898    0.89925323149287   -1.54277949617385
H          -2.02869194258262    2.51321702979500   -0.45401771570771
H          -2.22611147387743    1.87735540055093   -2.74117440448748
O           2.40098617309999   -1.34425977178751    1.49373330249913
H           0.95264803572712   -1.03525158039216    1.31296356206998
H           2.44687042823350   -2.21772763611933    1.05540733862816
H           2.82278761285642   -0.72368246550624    0.85568104820037
N          -1.44316961086797    2.48013096657483    0.41207891185989
H          -1.92335521130105    1.82854124721089    1.09100273383666
H          -1.25437662796240    3.39760968044948    0.79966176812684
H          -0.55155160028385    1.95675527060174    0.10455433761242
