    26
        -50.47168695  Gyration_radius:  2.49103487051 Dipole_moment: 2.994
 S           0.53805721421908   -2.11888242044717    0.72366818538229
O           0.71457195506958   -1.51410403584010   -0.59456563762567
O           1.40743091909900   -1.47415349906164    1.70193438354729
O          -0.84318770768891   -2.18520720497943    1.12803120542786
O           1.05117293977920   -3.61100007405871    0.60478952733361
H           1.98283292028761   -3.47751751073793    0.46861596399688
O          -0.48251079979641    1.88278454834163   -1.89249591643843
H          -0.82195303911933    2.34475496182171   -2.65911797202194
O           1.96378196650642    0.74120204213035   -1.36563563932190
H           1.20980074283140    1.24743148073933   -1.71922967513830
H           1.62482254144833   -0.16938599362408   -1.26266382937891
O          -0.89251681486339    2.03580902844081    0.82592393452154
H          -1.52496833556288    1.29878787214084    0.92643637677303
H          -0.81061559972235    2.17184173749732   -0.13550331004328
O          -2.46482761683614   -0.18506139969985    0.88002333901474
H          -1.85369384459227   -0.95249283257994    1.02237255619809
H          -3.23702349830727   -0.35897160582472    1.41996151065303
O          -1.49215931166573   -0.50875356886611   -1.71639326276210
H          -2.08481949309314   -0.44626666102247   -0.95307670582536
H          -0.89877840653296    0.97130476189841   -1.90432307146519
H          -0.71280740914991   -1.00373545806830   -1.39002514563702
N           1.53911789748669    1.07959351070219    1.20210951278158
H           1.87593521618185    1.06512557797397    0.19143668761935
H           1.48836279973331    0.06301151026346    1.50230066066758
H           2.16165081585704    1.60519582487939    1.80497970394894
H           0.56232392845928    1.49868943795370    1.19044661771973
