    26
        -50.47168688  Gyration_radius:  2.49095364638 Dipole_moment: 3.013
 S           0.19654464751356   -1.91383855991236   -1.26554224204823
O           1.60174010992618   -1.55647876869210   -1.42788279468074
O          -0.21213043796349   -1.76111727375078    0.12884205581903
O          -0.68458157437382   -1.23870323552736   -2.18395889157403
O           0.10156799470044   -3.45880568681491   -1.59381060508190
H           0.79536733112812   -3.80839761609408   -1.04540776235877
O          -0.86866530591844    1.43394174691898    2.13248026666035
H          -1.42179542649793    1.82736794530337    2.80753111691824
O           0.35100589891874    2.34037668024013   -0.16297807434508
H          -0.30262707891860    2.02708406519061   -0.81710098568018
H          -0.07445797973600    2.21175667119714    0.70426580459379
O          -1.49398941554022    1.18784358954365   -1.79853654389029
H          -1.16575199423999    0.27204302473625   -1.98924784422124
H          -1.84740355186550    1.51873871892197   -2.62531423542172
O           1.00230592380170   -0.58136008008687    2.21981952859470
H           0.52725383656045   -1.17930213756312    1.61025208367958
H           0.36600794030532    0.13061601787193    2.41421929619802
O          -2.26073225065591   -0.10012015059007    0.55771642250893
H          -1.46690841619316    0.84697213467343    1.58332886415969
H          -2.28553854434726    0.39455343972614   -0.27436934658352
H          -1.61687890868520   -0.82145674550339    0.40270705910398
N           2.18095638501935    0.45914978769457    0.11837237607988
H           2.00752444149837   -0.32233986167996   -0.57823062167803
H           1.53305077682438    1.27542537208921   -0.09152040454604
H           1.88471358757540    0.07156152165502    1.06551401214388
H           3.15342202116321    0.74448942041757    0.10885147561888
