    26
        -50.47168691  Gyration_radius:  2.49104481751 Dipole_moment: 3.014
 S          -0.75939850427490   -2.06328274655201   -0.68520576897440
O           0.36075638394975   -1.27146919870576   -1.18783090940526
O          -0.49462302735675   -2.51558795139606    0.67642491318944
O          -2.02829665394176   -1.39896563087193   -0.84093627099592
O          -0.81750079159981   -3.37229867015751   -1.57235234372403
H          -0.01563228264423   -3.81088479967158   -1.30964810028393
O           2.49545085310975   -0.20924033770222    0.05912889364352
H           1.87786277289364   -0.66442015757926   -0.54592748711933
O          -2.38191768194128    1.08036974597310   -0.19246548648815
H          -2.28241612723106    0.11844992463117   -0.41041534124419
H          -3.32470124960441    1.24152685466855   -0.13567588195835
O           1.41508630856554    2.29699409655337   -0.28750049300772
H           1.77968546131760    3.11038590100793   -0.63652232243039
H           0.80926870038059    1.93118328582398   -0.99690469769280
O          -0.44933908501778    1.65871796844204    1.63501019911958
H           0.22858365062545    2.05490655491041    1.05788183867803
H          -1.22002622210295    1.50538559201529    1.05552741141682
O          -0.23819615686096    1.20995431327214   -1.97729065272340
H           2.32956880587670    0.74004346015199   -0.08590341546540
H          -0.03287302775507    0.26267126030194   -1.83800158642120
H          -1.10309423203756    1.34074162788283   -1.56189630248485
N           0.77214725773709   -0.65444872229524    1.98810226181940
H           1.61409458783275   -0.50307725872949    1.35313555649454
H           0.21108377470209    0.24828951151138    1.96867415049231
H           0.20950462660475   -1.43373882705176    1.53834683387366
H           1.04492184875183   -0.90220581645664    2.93224502169100
