    26
        -50.47168694  Gyration_radius:  2.49107278984 Dipole_moment: 3.009
 S           1.55889176097844    1.61609312870125    0.51211981591761
O           1.66745886864726    0.47258412898118   -0.39081242821154
O           0.59731469362399    2.58449829715978   -0.00388996308571
O           1.31753267399854    1.22873896249463    1.87865206755249
O           2.96366385315712    2.34386083641955    0.48510574958429
H           2.98298288413973    2.67909915659969   -0.40464572502741
O          -0.79132424034905   -2.40140948034682   -0.98410881109910
H          -0.86191545163749   -3.33888380076217   -1.16454888174140
O          -2.24942650721563   -0.58027885977773    0.47753298043096
H          -1.70226988825886   -0.56088221320392    1.28603931082359
H          -1.90500332456410   -1.32724219731476   -0.04507486844967
O          -0.45739316101454   -0.53873260645103    2.52524027803641
H          -0.62763837832527   -0.45935648053766    3.46475895520213
H           0.20030401136398    0.16995272476364    2.30643295013988
O           0.15919887720142   -0.29837696413722   -2.48185100366288
H          -0.17821861498680   -1.15051830274067   -2.15076189060799
H           0.88061923609404   -0.06134845396699   -1.86701810839812
O           1.13884712433001   -1.91263656080256    0.69110672787406
H          -0.02073532386472   -2.29220331789336   -0.35292154258403
H           1.48145455055032   -1.07253256698070    0.32274615100370
H           0.67415291036134   -1.65799430972541    1.50155876997184
N          -1.39100644352455    1.33068762674770   -1.12800477070312
H          -0.87102210816554    0.73478419765463   -1.84171108307292
H          -2.08623596306063    1.92692038684438   -1.56202525041715
H          -1.83324191488215    0.65689461621531   -0.43472088139346
H          -0.64699014456686    1.90828205206329   -0.63919851808076
