    26
        -50.47168504  Gyration_radius:  2.49119329512 Dipole_moment: 3.022
 S           1.71056724013239   -1.51338091222688    0.28744252733694
O           1.59722252964573   -0.40237916890645   -0.65419173991262
O           1.81209615121000   -1.01553683455026    1.65531696995911
O           0.68322993497954   -2.50688126761831    0.10427203533398
O           3.09236045845789   -2.22274697859384   -0.01487623143673
H           3.70817287775967   -1.57256155498798    0.30509103300332
O           1.13141983533123    2.21968253511215   -0.27188022815643
H           1.46906232929899    1.34577100001473   -0.54930637495762
O          -2.10509429376683    0.56811122118917    0.92642739115155
H          -2.01761827333256    1.13815087967770    0.14092391271488
H          -2.09895336380437   -0.34512263824051    0.58118485622402
O          -1.37239444386753    1.90173457191083   -1.36762631433330
H          -1.83882898017862    2.37965787516696   -2.05358299846237
H          -1.07726241928952    1.03595431931448   -1.77685545099620
O          -1.80945421480658   -1.88874283316313   -0.20745751885770
H          -2.33128900820148   -2.68015269780530   -0.06858787074595
H          -0.86681563409161   -2.15281457703596   -0.05104849546861
O          -0.56333377426656   -0.41758854814448   -2.22573634181850
H          -1.13612616340398   -1.04242637382178   -1.75740225025531
H           0.28152677175406    2.31609771134100   -0.73872012372375
H           0.30139633331327   -0.47935726749895   -1.77038420702679
N           0.28192760939304    1.07593427274450    1.93230992047553
H          -0.71700636728554    0.83420290748601    1.66054817651042
H           0.66359691713203    1.70310509374894    1.16013258054107
H           0.32190487410059    1.52171151890178    2.84167190203784
H           0.87969306376094    0.19957775603381    1.91233484088043
