    26
        -50.45187027  Gyration_radius:  2.5584640922 Dipole_moment: 4.379
 S           1.18830355649049   -2.03129965934685    0.18500361433034
O           0.57656812124527   -1.22618120594085    1.24797480249721
O           0.23684499604932   -2.42525308338311   -0.82165194009424
O           2.39092950885444   -1.38873146271325   -0.32106052486856
O           1.68111736348874   -3.37255444139518    0.88366954844364
H           0.92253806074675   -3.94833989775458    0.84945777578372
O           0.59016898426282    2.07141346208168   -1.06056256531151
H           0.91145972353268    2.57125745905161   -1.81191206297391
O          -2.84508522223058   -0.23737383377113   -1.09951180918065
H          -2.58714205214545   -0.24507795858440   -0.14336896504476
H          -3.14417699366561   -1.12670605855726   -1.29394304378561
O          -1.15425696846655    2.41802438557628    1.06669247004640
H          -2.00160976069000    2.76957820006705    0.78693730152719
H          -0.60284452669264    2.37323094249350    0.26853788371141
O          -1.92644484805538   -0.22806923661188    1.38867847506129
H          -1.67108523530601    0.70625934353852    1.48066533570953
H          -1.08660365368012   -0.71983421060194    1.37170439406544
O          -0.34287802515295   -0.09742478568440   -2.01751040912703
H          -0.03614252182159   -0.95790500083478   -1.67356841571292
H          -1.30608823123619   -0.07947469327782   -1.80443070753778
H           0.22359251708534    1.20314580443695   -1.44750565234534
N           2.02290577058477    0.84400218819734    0.81435954021833
H           2.46683085660319    0.03794723452945    0.26664205630130
H           1.54559546156177    1.48192137559416    0.13007482791965
H           1.29420009253601    0.27660187704978    1.31355899677038
H           2.65330303610144    1.33084326584052    1.44106909360295
