    26
        -50.45187026  Gyration_radius:  2.55851738315 Dipole_moment: 4.376
 S           2.29790254708381   -0.52164457601360    0.14383908225033
O           2.01548117941824   -1.12405350847438   -1.13334060753730
O           1.64120142700688    0.78028971283379    0.30530851168537
O           2.04599104366328   -1.37256269036206    1.29613139772542
O           3.86069807027996   -0.22636851588148    0.16313275590516
H           4.07501400323169   -0.03307015453074   -0.74512798949957
O          -1.89825784753295   -0.95863537201422    1.11359173424661
H          -2.42231607103493   -1.71258007026655    1.38659774297743
O          -2.28980967058426    1.69978496712444    0.42956825246027
H          -2.99592276824652    1.80902611472657   -0.21021386784642
H          -2.25739116697147    0.75176727483390    0.63777319881481
O          -1.16073521917543    0.05815930202468   -2.83006208631605
H          -0.53870071843809   -0.10784114833184   -3.53980451845037
H          -0.79794907491112    0.83385608060153   -2.33257899754666
O          -0.14963304067849    1.98530768284938   -1.31390397823569
H          -0.85615650926598    2.07965521854201   -0.65165778084905
H           0.59831001924519    1.59044989187125   -0.83210535584026
O          -0.58822354934897   -1.72800285256252   -0.93131274311088
H          -0.91003306022178   -1.16063722011634   -1.67161398070332
H           0.38263914308735   -1.63008363699952   -0.95731518613800
H          -1.37214645109738   -1.27284563406925    0.29959342257137
N           0.23560037782689    0.06709394760183    2.32552783454404
H           0.21113160316861    0.45544449401225    3.26135259513201
H           0.96932721639186   -0.69830269464672    2.17528296429287
H          -0.69425793794499   -0.30279193373779    2.00674710103347
H           0.59823645506421    0.73858536099231    1.60459050843865
