    26
        -50.46690442  Gyration_radius:  2.50955840662 Dipole_moment: 2.789
 S          -1.86251666586466   -0.04040224528692    0.13986528244917
O          -1.37660783484245    1.32096319513268    0.19696843054469
O          -2.57174442757589   -0.39125167476377   -1.06467437221798
O          -0.79942757789163   -0.99560952435255    0.45909173877798
O          -2.93401400918747   -0.17697733191346    1.31695061563739
H          -3.56312473317757   -0.78202220398059    0.93843972797957
O           1.18037328181098    1.78366259698660   -0.52208535664509
H           0.22439245767119    1.91589060419303   -0.39311806283925
O          -1.03689961806102   -0.35410917279610   -3.24636382191224
H          -1.46405815398700   -0.92097782082156   -3.89052534688627
H          -1.65401524852262   -0.29711416606942   -2.48688577283902
O          -0.80854057051517    1.05699284770738    2.81078226977068
H          -1.04101726980649    1.29526549880957    1.89635794439704
H          -1.62920456192084    0.75710068740233    3.20396179521714
O           3.17424536747305   -1.28236165684086    0.08129430311994
H           3.95905090586156   -0.91073570059399   -0.32451883633731
H           2.48174834677516   -1.26339642308284   -0.60285193512612
O           0.99365741054944   -0.75143007443703   -1.53679373348300
H           0.33782618772969   -0.98664305641942   -0.85345332915641
H           0.46042619731971   -0.65700328944369   -2.34867935166198
H           1.24430123545517    1.02792684294278   -1.13763271677601
N           1.36336590310575    0.12684750815483    1.50808877240567
H           1.23626430685104    0.45456485093431    2.46358136639783
H           0.49390644746129   -0.40041576209051    1.23312969996346
H           1.40202006925368    0.94317218143489    0.82149139452567
H           2.18959255398915   -0.47193671075467    1.33757932472576
