    26
        -50.46926209  Gyration_radius:  2.54920389093 Dipole_moment: 4.551
 S          -0.09831897280749    0.49875846166299    0.23814891687694
O          -1.28975748132440    0.39304640835298    1.07085215761340
O          -0.60100017815692    0.24548052902150   -1.21046102458286
O           0.55402752216708    1.78208899457480    0.30222514326433
O           0.83559873003776   -0.60363283505414    0.54928758615013
O          -2.59288505740381   -1.44646127627434   -0.30857261394096
H          -2.34051976863003   -1.22311287544135   -1.20929760838832
H          -2.33254667072538   -0.65746090281786    0.21530106859629
O           2.95381663507967    0.55100765869329   -0.59596041392460
H           2.28895358758258    0.03217919450199   -0.10679472589501
H           2.88604903513486    1.43969682591321   -0.23476988130137
O           0.86670524525483    3.36326359958506   -1.81254941229425
H           0.06498523653971    3.87545204759078   -1.92485068811744
H           0.76897724942897    2.88710971482970   -0.96134010135717
O           1.33797601573606    0.86324258274740   -2.69618256224830
H           2.09441622449447    0.66430566407636   -2.09762403554096
H           0.16941829466126    0.46076290554622   -1.85999152691985
H           1.24651660891395    1.83666562138110   -2.66255243916080
O          -1.29362609537912   -1.11393874762138    3.25849133847869
H          -1.39954127282541   -0.44123704480568    2.54956161133438
H          -0.95542248451893   -2.30761271576250    2.09700446039037
H          -0.65738496068463   -0.74985992289770    3.87601732042536
N          -0.68789732631187   -2.58101337049059    1.12353161324114
H          -1.51839109730653   -2.38076688182772    0.50193036926195
H          -0.35543777098600   -3.53630429353713    1.05625810781146
H           0.05528872202877   -1.85165935195054    0.84233732022765
