    26
        -50.47126123  Gyration_radius:  2.42914732621 Dipole_moment: 4.308
 S           0.42307643142147   -0.78483357785626   -1.68961279983969
O           0.93700288735846   -2.11572682234567   -1.40089139470511
O          -0.98046654537708   -0.66789570068514   -1.30816028162095
O           1.23275912582882    0.27347988346608   -1.12929485187569
O           0.48117196652969   -0.62169241270220   -3.25906106360799
H           0.15020029773348   -1.46188931152324   -3.55834071200229
O          -0.21711798183417    1.48075338342537    1.99923762529972
H          -0.42479222856955    2.16578463923830    2.63524178945551
O           2.16202961870568    0.23993926136351    1.41507874219316
H           1.43204390123993    0.76478857235606    1.79448379930917
H           2.08388122557937    0.37945474453686    0.45360572217557
O          -2.36529207309970    1.58429549036954   -1.59416322610524
H          -3.19577968196486    1.42991756769483   -1.14082092894197
H          -1.89293033543139    0.72670553446293   -1.59726544636899
O          -1.36307691824925   -0.91263452003104    1.32390534190174
H          -1.38179062452757   -0.82947933583781    0.34820817230033
H          -1.09059743168067   -0.03598234030270    1.65519261866858
O          -0.10545482004494    2.49104042109505   -0.38169131852014
H           0.46898036003091    1.80747710608060   -0.77396649279335
H          -0.95950079237913    2.39367903406397   -0.84323757469652
H          -0.20239505412486    1.92868332789600    1.09915676700202
N           0.97373013796819   -2.08163653393952    1.21255061939167
H           1.23779619224819   -2.90699948264292    1.73832923025581
H           1.59487596176372   -1.23893334542469    1.42370358226027
H           1.02825123058816   -2.24228907981349    0.16889672268173
H          -0.02660483971640   -1.76600653294452    1.40891538818242
