    26
        -50.46690445  Gyration_radius:  2.50947893964 Dipole_moment: 2.758
 S           1.50521020424245    0.52936080581505   -0.97224064130609
O           1.64689379206727    1.94792747947431   -1.18347148393172
O           1.88592590493465    0.05881701592844    0.34169923329357
O           0.17628577316287    0.03992238606221   -1.34456899581850
O           2.52104463683473   -0.15423461194997   -1.99844338909452
H           2.62294290762694    0.52740389670306   -2.65418362981772
O          -0.05625062707560   -0.25569472829785    2.18497263240088
H           0.81286352013231   -0.06431169771878    1.78993620946934
O          -3.26025405057559   -0.95213507800591    0.44857903823951
H          -3.76708157569357   -0.92153412395746    1.26145671978599
H          -2.82606252709451   -0.08441475363842    0.36801845859517
O           0.00729555976232    3.40619435634652    0.33405587370617
H           0.68258357388297    2.91406012851923   -0.17845602253419
H          -0.08075288765212    4.25813497841119   -0.09630265286303
O           1.79101682037479   -2.49397202505944   -0.49455729322166
H           2.35713540200577   -2.51188841285766   -1.26733112795214
H           1.93333854736942   -1.61593628949307   -0.09977239668153
O          -1.52423377035518    1.20208123063703    0.39227913678031
H          -0.65107983791387    0.42511769148674    1.81523399576878
H          -1.20023628544459    2.11687258870021    0.49307678376625
H          -0.99312089841557    0.84677866727485   -0.34536435946268
N          -0.73303266833824   -1.88475320018455    0.23878345114046
H          -0.25947608308273   -2.77767612730169    0.11627776988812
H          -0.38155919180869   -1.23183018137478   -0.50933832791857
H          -1.76680516680052   -1.90885715952153    0.20724425796777
H          -0.44259106216125   -1.41543283596942    1.15241673978867
