    26
        -50.46690454  Gyration_radius:  2.50961657943 Dipole_moment: 2.769
 S          -0.01516853602136   -0.34994740821944    1.83509143942085
O           0.71210317074740    0.86864285981886    1.55412963024418
O          -1.28419383710627   -0.17181082703580    2.49450203296742
O          -0.12049863782304   -1.19026275147643    0.64050550312546
O           0.88490929828591   -1.17442977174106    2.86580522044290
H           0.22506298700346   -1.59691619737882    3.40539369375111
O           0.46437447459965    1.95375562310622   -0.90151306415869
H           0.57942092528022    1.87971796506239    0.06248115080114
O          -3.08324709641585    1.11035401545455    0.99896760071000
H          -2.42923112232188    0.71278424670051    1.61142047402448
H          -3.94546416581043    0.87681165945688    1.34655128011040
O          -0.33546658341578   -0.72935947503650   -3.32957356371936
H          -0.46319078190762   -0.10568200727306   -4.04601567026949
H          -0.97123563388297   -0.47818163723313   -2.63628275646131
O           2.91709914905295   -0.53747969164306    0.93306640085969
H           2.21262079535776    0.07626589704588    1.20511600886073
H           3.06679895018430   -1.09604755467759    1.69701349289730
O          -1.64253558298158    0.21554756268823   -1.08168959668348
H          -0.43086405287219    1.60186828388982   -1.07106053321574
H          -1.19620933537444   -0.40275750224586   -0.47271231263219
H          -2.34463014131507    0.61537741215172   -0.53449672788073
N           1.47089192101921   -0.43218559326363   -1.34225247049743
H           1.08921332794610   -0.76026358372066   -2.24611300060250
H           1.25844204424993    0.61018560878911   -1.25491677582885
H           0.92391853235761   -0.87336182945098   -0.55756666296273
H           2.45707993120107   -0.62262529378159   -1.17585077328446
