    26
        -50.46053033  Gyration_radius:  2.50791828761 Dipole_moment: 6.054
 S           1.47045709182809   -1.44319768601196    0.50969594127869
O           0.86791476440277   -1.51828581628151   -0.81635463351535
O           2.40585058852954   -0.32231721555974    0.59512112473288
O           0.50399896579496   -1.42438609415550    1.57567521435480
O           2.33942646456648   -2.75496608920533    0.67396011541970
H           2.96809617073443   -2.66315004785512   -0.03478580141554
O          -1.71211739669931    1.06460729748970    0.70877250841329
H          -2.44657953839532    1.55423514671401    1.08056842197034
O           0.95218043677241    2.90886991612531   -1.30690850475404
H           0.42017017191293    3.62946305191101   -1.64685939049791
H           0.53856902299087    2.07400931332327   -1.64731765142766
O          -0.38110700894527    0.67383983356895   -1.73293213392555
H          -1.01211187479179    0.78404120993174   -1.00561027187643
H           0.15258119756518   -0.11115335399977   -1.49696961847097
O          -1.63756487841786   -2.29818941282304   -1.34033035567686
H          -0.68356248220989   -2.16791287449882   -1.16878375402400
H          -1.84897366817468   -1.70570141403007   -2.06536008598240
O          -2.11793008448364   -1.41392316162863    1.16799766396667
H          -1.90950498732870    0.08559552232832    0.90699014793658
H          -2.15057736656064   -1.84641640531456    0.28993409180707
H          -1.20841963758243   -1.58114253757183    1.48548995186001
N           0.89434400068108    1.70950618950107    1.07571803980585
H           1.01419646337307    2.33717712192482    0.24100218909081
H           1.54223957704026    0.86190851161074    0.92226458034293
H           1.14019309780446    2.17808999976774    1.94095302051443
H          -0.10176907040850    1.38939899473962    1.08806918007311
