    26
        -50.46053025  Gyration_radius:  2.50791250637 Dipole_moment: 6.054
 S          -1.48269862479965   -1.51222903956434    0.14708263128706
O          -1.84356770066645   -0.15823258654282    0.55166853932897
O          -1.38830221855381   -1.61425305032239   -1.30875457758588
O          -0.30153157753772   -2.00823653711982    0.80241859255527
O          -2.69238598926007   -2.43726834234053    0.57548957916333
H          -3.40977143666253   -2.06715438022250    0.07118373312729
O           2.06046571835014    0.45508793029782    0.33951183525758
H           2.99855167174072    0.60386468827201    0.46282754436564
O          -0.98153014652380    1.08300706700356    2.76003018916861
H          -0.89145870086645    1.97774371308152    2.42421671529907
H          -1.41956242311930    0.58042369299237    2.04448811883018
O           0.36980456109121    1.65073099047811   -2.86590335191599
H          -0.02447115310952    1.84327322154662   -1.97624811473307
H           0.93821537134979    2.39344364123157   -3.07359361253350
O          -0.28725453100317    1.84770363517788   -0.31965504614514
H           0.55641837908852    1.52838480807439    0.03471037652854
H          -0.94748259438391    1.17151997397887   -0.06735623883215
O           1.14485838807928   -0.56360940421693    2.49409297486397
H           0.64262385313927   -1.26702483799253    2.03697884885121
H           1.73111012800964    0.05381129193097    1.21548784823150
H           0.45693619993583    0.05706897801964    2.81143443124915
N           0.97616828324246   -0.73632931306996   -1.83977544751232
H           0.00350577017090   -1.14972793962771   -1.62797672330926
H           1.42905371342628   -0.43452625642063   -0.94613302651821
H           1.54337415703472   -1.42284920708863   -2.32517348900480
H           0.81893089183727    0.12537728244288   -2.42105231001852
