    26
        -50.46053035  Gyration_radius:  2.50787781303 Dipole_moment: 6.052
 S           0.28738352687997   -2.02064953191282    0.58252585629051
O           1.20393001485104   -1.49973881934917    1.59606764485285
O          -1.04363984633422   -1.44555310584598    0.73975676462293
O           0.81596373369779   -1.88106962028231   -0.74855752781083
O           0.13714085896643   -3.56748165596162    0.87856259781797
H          -0.17124534394730   -3.56518065058585    1.77902839204886
O           0.44535019733125    1.45958982456149   -1.49615364909586
H           0.70645201235084    2.09462527695134   -2.16392544147901
O          -2.72766462537824   -0.86123797649332   -1.25595160039774
H          -3.12399357837880   -0.05809758629690   -0.91059580649057
H          -2.18521754458211   -1.21803567853090   -0.52456728144201
O           0.60320487306270    2.43195349880433    2.19033589656945
H           0.46269371293415    3.37612423082429    2.10865796255599
H          -0.20298644454106    1.99758028164296    1.80903836309909
O          -1.24125846582598    1.23138680154852    0.73737810805439
H          -0.82603179919445    1.39708573799608   -0.12256079558286
H          -1.21441842660981    0.26085030941249    0.85609818567414
O          -0.45569678456581   -0.60548289769087   -2.69702671282075
H           0.08975397681785    0.65537974031771   -2.00960913718352
H           0.05426031556342   -1.23729499497409   -2.15228703120182
H          -1.37932185019630   -0.71168730372926   -2.38914205785631
N           1.97632480625987    0.76087962934961    0.62816088221942
H           1.69857360635803   -0.20306877827109    1.02245003409797
H           1.48202906753047    0.92184749305933   -0.27987933360478
H           1.62566542734709    1.47956967562443    1.31050900337692
H           2.98274857958677    0.80770610981674    0.51168669367727
