    26
        -50.46132351  Gyration_radius:  2.48134449913 Dipole_moment: 7.392
 S           0.61734303623808   -1.96745108439252    0.87783347955229
O           0.71742418439445   -2.69720264868689   -0.35854493182778
O           1.82106893821500   -1.19294159831315    1.18607160182941
O          -0.56792975379845   -1.12820623962753    0.98934520885884
O           0.48913751709732   -3.06051882637398    2.02042554949640
H           0.83378494243599   -3.82304155083817    1.56843937417468
O           0.76165527024577    1.40919272815118   -1.79112308080052
H           1.20007469094086    1.70153134725635   -2.59077279341039
O          -2.38116454074754   -0.66256387265678   -1.04658546533632
H          -1.91997628459743   -0.95978234870717   -0.24721908631721
H          -2.41072312724191    0.31019688791544   -0.98123831759985
O          -1.77296021612368    1.99909575816764   -0.63977081619251
H          -0.94999957655682    1.94103641873565   -1.14473182974441
H          -1.52801290453751    1.89217224214712    0.28977358513427
O          -0.76646400839957    1.28464551585273    1.91328989208938
H          -0.74434596077385    0.34029647127833    1.60428165719138
H          -1.24270613711772    1.28377908610243    2.74434323960545
O          -0.03169757642922   -0.96348884193030   -2.25553595500494
H           0.46058039472209    0.45035823649119   -1.98110179339615
H           0.32682802545440   -1.65250660619331   -1.66409572904400
H          -0.98958012650249   -0.91876193372053   -2.01970260299953
N           1.63531957213115    1.31204215301596    0.70751942085073
H           1.78288592228571    0.25530541407736    0.90378037430857
H           1.38480521355812    1.41259667047169   -0.31238962349830
H           0.81461763630755    1.58456002292738    1.27816971239925
H           2.46003485880443    1.84965660889192    0.94953893969803
