    26
        -50.46975372  Gyration_radius:  2.4451208039 Dipole_moment: 3.672
 S          -0.07664628169424    0.53461899288676   -1.82019438700046
O           0.79326868257769   -0.33067972909450   -2.57763151183543
O          -1.15733633012324   -0.16559812869863   -1.15287963407474
O           0.64737229770822    1.39417012643800   -0.88030172960383
O          -0.73329169953180    1.52793872717391   -2.86899663055601
H          -0.54016172750041    1.07390043238924   -3.68172337876741
O          -0.30851417714425   -0.85690829922709    2.43850495487163
H          -0.47330348043886   -0.85298238862648    3.38164432750148
O          -0.60513829941310   -2.51799669680470    0.08981110536935
H          -0.95551329461544   -1.77719079594261   -0.43587389936168
H          -0.61897892690803   -2.21179274501745    1.00555434093528
O          -0.89092880464214    3.02125942839789    0.55753333706456
H          -0.26943805485793    2.50545774941929    0.00410453768618
H          -1.39077527597156    3.57164434002503   -0.04733659078837
O           1.83322726913909   -2.09889436697111   -0.86402605667792
H           1.57370850758663   -1.55624246049290   -1.63703833818979
H           0.99530475134178   -2.53024510658914   -0.57542284315976
O          -2.02693155542953    0.65464145689185    1.24282435510412
H          -1.88975084272676    0.32444400199226    0.33379673225733
H          -1.01621439158500   -0.26954949267382    2.02700557526964
H          -1.71993184384646    1.58116178097987    1.21066193284352
N           1.78616518275436   -0.19414512828802    0.87782812176266
H           1.06526591574605   -0.44494104754069    1.59191696884040
H           2.64766385353396    0.11628442711444    1.31298916903307
H           1.94220263890257   -1.04817743872698    0.21928606010846
H           1.38867589703555    0.54982235057615    0.24796346112484
