    26
        -50.46058469  Gyration_radius:  2.53706841934 Dipole_moment: 6.725
 S           0.49951088348181   -2.14052202540221   -0.20312406269698
O           0.86127514449204   -2.01165893018594   -1.59722777947317
O           1.59729262612414   -1.75268536246981    0.68344515987813
O          -0.72984627537105   -1.45441839287601    0.14869439577020
O           0.24106863193555   -3.68208372605087    0.04749984283953
H           0.92976005558874   -4.06180807974693   -0.48703330257955
O           0.37647550483302    1.94388191645865   -0.88565956728269
H           0.59160761625190    2.73421566900733   -1.38208387867972
O          -2.60393241288659   -0.60594044396311   -1.57077990159042
H          -2.01224637963759   -1.10311027333993   -0.97336778370951
H          -3.05968791861694    0.02579561275030   -1.00906755207775
O          -1.50650296989828    0.98480817451967    0.96882958138251
H          -1.30978284050997    0.04591529467154    0.78748271897734
H          -1.02972144442470    1.47245311526861    0.28030014230835
O           0.07067513964744    1.47521191359129    3.01842889131315
H          -0.65956884417711    1.26153924997063    2.38068855155444
H          -0.13308297298903    2.33616509341215    3.38544491489864
O          -0.22533648797768    0.17404549126308   -2.61421677579591
H           0.24679135926725   -0.64769024777866   -2.35909277406790
H          -1.16908021309576   -0.03825824898584   -2.46670573853167
H           0.14870795768594    1.23765960518342   -1.58668352744620
N           1.79305549073092    0.77632204617193    1.08965866706179
H           1.25501396524123    1.03937223489704    1.95113928057564
H           1.34661706603900    1.25331333441508    0.27186163774142
H           2.77110583245685    1.03012561510559    1.17687153358137
H           1.70983149579038   -0.29264864588739    0.94469731605849
