    26
        -50.47229270  Gyration_radius:  2.48063716273 Dipole_moment: 1.996
 S           1.51886792677831    1.67167794755867   -0.30311377055662
O           1.22764018390423    0.86656951625380    0.87901372647889
O           2.26701268589344    0.92350076740012   -1.29483263859479
O           0.32657322533863    2.30944719607230   -0.82313597970207
O           2.48040770963401    2.83986570288714    0.16885283579391
H           3.32772729970098    2.40877523295494    0.13572949042362
O          -1.00613470680833    0.40169977824534    2.30773967732687
H          -0.10488430432170    0.62614704818058    2.00567438498179
O          -1.02180012437259   -2.17114241808945    1.30582332960407
H          -0.06341843437649   -2.08028921904970    1.03303149037431
H          -1.09952556577991   -3.01771342586694    1.74603714357426
O          -1.81775093632793   -1.11756624225164   -1.11035525945212
H          -1.67221917978436   -1.62785886158348   -0.29332998557192
H          -0.95140731084353   -1.09517715047725   -1.55914569239762
O           0.71977878162087   -0.97649406529005   -2.13291549418642
H           0.87818077723864   -1.09717101689922   -3.07047387169072
H           1.29675454958032   -0.21954832908736   -1.85531861996019
O           1.41044855381132   -1.75542751709591    0.46852911480343
H           1.48086435212966   -0.80173848939800    0.68308834334133
H          -1.08967725750924   -0.55628162319919    2.15098334589622
H           1.34052971941750   -1.78238185206584   -0.49566085522530
N          -1.92065063720698    1.26832728141210    0.00645079841926
H          -1.05840492178422    1.76619976394683   -0.35432604179854
H          -2.00953525157771    0.35537635897881   -0.53058657351587
H          -1.71404538981176    1.01187389112192    1.01940243276779
H          -2.74533176415237    1.84932972540800   -0.08716134096614
