    26
        -50.46058469  Gyration_radius:  2.53711460358 Dipole_moment: 6.723
 S           1.99681601051430    0.80111597855776   -0.49333200196708
O           1.85112505692249    1.40304142753302    0.83260796648229
O           2.62829900698740   -0.49809314601238   -0.42901864087425
O           0.73817520409593    0.80556555957359   -1.21538203155594
O           2.98411525030422    1.73451991012606   -1.30577782330504
H           3.82187340259475    1.43081964923107   -0.97374233100198
O          -0.99080631950164   -1.68319809745321    0.94315129025372
H          -1.30818793810634   -2.48901468865157    1.35212732704709
O          -0.11734386520013   -1.09858919097749   -2.89772127159940
H          -1.05416465878069   -0.88778223540594   -2.91258462603790
H           0.31058199755181   -0.34324629684573   -2.44996394342152
O          -2.34215286575185    2.00012733311387    1.34482658881885
H          -2.26081387822061    1.53769837970353    0.47021762548727
H          -3.26152201862985    1.93017625192196    1.60430677713649
O          -1.87251979828333    0.41722750584920   -0.70565022966760
H          -1.75330564803588   -0.42166001808506   -0.23535533092453
H          -0.96987947413834    0.68670741496445   -0.96206124978009
O           0.81125613415943   -2.39904292066704   -0.70668807608849
H           1.57556140149677   -1.79770448523529   -0.57463244810607
H          -0.26138011326886   -1.97891433368634    0.29301637367311
H           0.47408003826637   -2.16390927584499   -1.59472028038959
N          -0.20450737022060    0.59830279193336    2.14600311433706
H          -0.45914246196549   -0.34433900796958    1.76868993224857
H           0.65354040540415    0.96229580926492    1.59627400112655
H          -1.01164658316825    1.24550316088965    1.97189530749778
H           0.02194908500785    0.55239252422709    3.13351401061894
