    26
        -50.46262709  Gyration_radius:  2.62396764546 Dipole_moment: 2.006
 S           0.51699764382877   -2.22635110543644    1.10371253975130
O           0.19967469166128   -1.66647319845989    2.39454623498206
O          -0.61511360923885   -2.83440186358728    0.43074779790533
O           1.20752779657065   -1.25368843282377    0.24892500405190
O           1.58369520662138   -3.38355560957616    1.34459123716276
H           1.17707331082302   -3.90513429922420    2.02963725421572
O           0.00552930212429    2.19032135248428   -1.68819329964029
H          -0.05028039846353    2.62649291905069   -2.53879325168731
O          -2.05425763433123   -1.22205866291366   -0.97990768867401
H          -2.88220615574643   -1.67691462028875   -1.14131710802244
H          -1.50966907616516   -1.84766958898931   -0.42825187794420
O           1.72752813604521    2.84539195377914    0.31598270734098
H           1.10895857711704    2.74632580233869   -0.43685877560776
H           2.58169689082583    2.54260501877067    0.00267517386257
O          -1.88035020104664    1.25664810411254    0.12273616021774
H          -1.42833902415541    1.75463971004989   -0.57864255094031
H          -2.05936604235274    0.37144740308673   -0.25250476520688
O           0.31461241814807   -0.35894875899936   -2.11065688480302
H           0.18648443131838    1.22311472920862   -1.88084315879371
H           0.79867260205081   -0.74220466309058   -1.35285389753976
H          -0.58432462203366   -0.70929685040632   -2.01167635835020
N           0.33685028216636    0.87362012578171    1.50619315761510
H           0.26255114704533    0.58314791270675    2.47868224957599
H           0.76170461381599    0.05316309046325    0.99156688228221
H          -0.62760912972389    1.04034628662618    1.08760395236504
H           0.92195884311594    1.71943324536154    1.34289928586956
