    26
        -50.46262688  Gyration_radius:  2.62398823843 Dipole_moment: 2.007
 S           1.55334977170280    1.96660652603521    0.40241513116064
O           2.69393394723773    1.08559402255941    0.34381733766300
O           1.18142584399837    2.53522711827166   -0.87920286716115
O           0.41381080495893    1.32996107433082    1.07301104497615
O           1.95120186917762    3.18461215947189    1.34746918621329
H           2.78744096524848    3.46470741984982    0.98840748869329
O          -2.16493140127954   -1.72009324605581    0.02300353442563
H          -3.08504486963951   -1.95369968100736   -0.10231246814458
O          -0.58736382099814   -2.55110408185112    2.08018329751800
H          -0.90928729602063   -2.06065547884623    2.83865659862479
H          -1.21924218445889   -2.37608828603957    1.35263971542076
O          -0.41510025677825    1.09254356645573   -2.30416028630587
H           0.20999954312130    1.64930686651750   -1.76418780946799
H          -0.36731513416837    1.44381823461396   -3.19456391531431
O           0.01726160891654   -1.51791086169437   -1.68117985364452
H          -0.83064924583450   -1.76902328267488   -1.27838057201296
H          -0.10641095832971   -0.60738791955184   -2.01598106173678
O          -1.97927678295740    0.87505696969727   -0.03680623045566
H          -1.20908258208116    1.14302857482692    0.50213496394644
H          -1.69780778592710    1.05487318664055   -0.94735744436099
H          -2.13269808603271   -0.71857270918035    0.05833628673934
N           1.19756589522026   -1.13394938807280    0.65031367051568
H           2.21365386792760   -1.08712665084688    0.68247196792662
H           0.85622892236503   -0.16371798779071    0.89664797162082
H           0.86057452420018   -1.34306304809160   -0.33755812397020
H           0.76776283045431   -1.82294309752957    1.30218243713398
