    26
        -50.46262700  Gyration_radius:  2.62391674511 Dipole_moment: 2.005
 S           0.59753633344654   -2.18917422769735   -1.13676091407839
O          -0.55721859103632   -2.06436160131840   -2.00583515543082
O           1.79825309983319   -1.59226989858876   -1.66822366627605
O           0.31595584995054   -1.71533542862247    0.22330882327130
O           0.88251578851697   -3.74698282615368   -0.97243854372676
H           1.22812136241805   -3.98862581746470   -1.82615900880232
O          -0.95404105770935    1.89667454404069    1.77166020945854
H          -1.62813159849742    2.32350925055260    2.30109103735472
O           1.61731483425396    1.44656894337224    2.54396702277354
H           0.69919774333350    1.72389565417764    2.34555375366058
H           1.55049833271741    0.74112975091986    3.19000187999042
O          -0.21197902862784    2.06848156755788   -0.89786820091437
H          -0.55991374570109    2.26710166012007   -0.01259438167314
H          -0.84152655227525    1.43420525375241   -1.29515740425913
O          -1.90889388399367    0.11762836626352   -1.73689331373104
H          -2.45792503409191    0.18828673040292   -2.51923982676944
H          -1.38533542568963   -0.72173454934465   -1.85376589173335
O          -1.88905978954922   -0.39844100162234    0.97753334356196
H          -1.13775469554795   -1.00866893972126    0.84099075890079
H          -1.31599115932560    0.99251507164190    1.53321905961998
H          -2.20027015908392   -0.21033976083156    0.07839597523149
N           1.70116047785949    0.49980200031520    0.02692867083628
H           1.03432587366258    1.17595517576022   -0.45404573006960
H           2.47772766454994    0.26166426350304   -0.58619251891572
H           1.97471646465060    0.90008315654373    0.94851743052307
H           1.17071686593509   -0.40156732752856    0.18400659118492
