    26
        -50.46262699  Gyration_radius:  2.62398981085 Dipole_moment: 2.006
 S           0.23378333309072   -1.29648072719253   -2.16954249291938
O           1.42152801381084   -1.95477416375468   -1.65942543555986
O          -0.99309565925340   -2.00072580754897   -1.88793872572470
O           0.15896875024285    0.10716834352585   -1.74796091042863
O           0.38626008673477   -1.23659049100976   -3.75324271536974
H           0.25819787568631   -2.14416616884933   -4.01127347718202
O           0.09132108178720    1.97181818643496    1.93644145184971
H           0.52656882090913    2.62196574038801    2.48848381586435
O          -2.32966417722439    2.28453304456189    0.73137856608143
H          -1.51033749357779    2.25300891368702    1.26704777834961
H          -2.16256090536740    2.90806604346279    0.02235295151025
O           2.03470917234577   -1.38647578370304    0.78224624615730
H           2.65207381021915   -2.06254889929525    1.06543122848389
H           1.79748460660148   -1.61884685207969   -0.15690890421316
O          -0.25637877482329   -0.77685485188563    2.11202465555802
H          -0.11799188284879    0.16072425080166    2.32664033118815
H           0.58108324114317   -1.08464526870396    1.71154934001592
O           1.75371502116010    1.26653678288050    0.06250061801183
H           2.13004670716442    0.43952938990648    0.40173075630428
H           1.23844865859733    0.98458634897356   -0.71884390934991
H           0.72890985722895    1.76616819741292    1.19039979473562
N          -1.75656115057968   -0.24183687805850    0.00504021975700
H          -2.26953865010719    0.63396330609812    0.23790968579509
H          -1.24670732278151   -0.58018961022050    0.87613206119759
H          -2.33014675109087   -0.98464821568678   -0.38851994182791
H          -1.02011626903771   -0.02928483012179   -0.72365298828753
