    26
        -50.46926246  Gyration_radius:  2.54932934296 Dipole_moment: 4.557
 S           0.44127431604912   -0.09387107747639    0.33466249797465
O           1.38277232234096    1.00882443362918    0.18647740568690
O           0.90141777122494   -1.15002116144191    1.20040627487523
O          -0.83637313482498    0.55171550215479    0.93983092720903
O           0.05260142852691   -0.60916188089072   -0.99484218881408
O          -0.36079087817297   -1.85763355237200    3.43149054280591
H           0.20936034795477   -1.65436729473996    2.66049752258119
H          -0.07535073143292   -1.27405276243589    4.13552737030787
O          -0.91727812172694   -2.92204919246183   -0.07823912966244
H          -0.20899964121910   -3.18616874258172    0.51623850769764
H          -0.56450229862424   -2.14986033002388   -0.55778989250483
O          -0.33423297209380    2.94422958447478   -0.35104485465506
H          -1.08708489374529    2.68611826105203    0.18885050866133
H           0.40558829791663    2.39749705045784   -0.00666967458925
O           2.67387482216643    1.40147285466929   -2.10190106879779
H           2.35466855031212    1.31013806038476   -1.17668296997553
H           3.24709753129721    0.64974299068226   -2.25964391075095
H           1.07423562925997    1.56058266175135   -2.65548834287305
O          -2.29410401365253   -1.38875206694573    1.61626238147400
H          -1.83423837860148   -1.63934389692870    2.44259359904992
H          -1.48061654841828   -0.20545625389734    1.21120967813620
H          -2.01009306146650   -2.06531766421510    0.95918405292132
N           0.04454909470829    1.46203343728752   -2.50181513369574
H          -0.05145899394485    0.53219545800175   -1.96376318876304
H          -0.48956271677333    1.48233875457949   -3.36316501542767
H          -0.24275372704235    2.20916685728912   -1.81218589888564
