    26
        -50.47229212  Gyration_radius:  2.48045513758 Dipole_moment: 1.992
 S           1.73594619783780    0.03293836573103   -1.47789323171368
O           1.71168267462002   -0.33579486772552   -0.06541482335880
O           1.14716728128559   -0.99595558053790   -2.31283857827057
O           1.18592465229300    1.35488866553815   -1.69693381814724
O           3.26203235631866    0.11108478470119   -1.89753443223830
H           3.46797150012427   -0.80820894171675   -2.02939224015912
O          -1.22806237252370   -0.76530625080209    2.31454120938524
H          -1.56628042810950   -1.29730701234837    3.03499065929789
O          -1.36475665845082   -1.13067992817960   -1.70056782424667
H          -0.41640216446995   -1.04605627123601   -1.97740279979527
H          -1.85810690331842   -1.30366099567751   -2.50389211164543
O          -2.32205049254029    0.60335734880562    0.19126278581166
H          -2.06576073967797   -0.00337169540207   -0.52895386829473
H          -2.11759587625207    0.12628152424725    1.01577654203497
O           0.93561022989153    0.94486066569450    2.17140687268480
H           0.20405163277858    0.35883774919858    2.43691246598510
H           1.41815464693647    0.44564634418143    1.48435501458992
O          -0.05471272955368   -2.23910038017745    0.51441967243572
H           0.69855197182734   -1.64824673769965    0.30487603986473
H          -0.78060914203673   -1.39745050328733    1.68102321219545
H          -0.63244597598954   -2.17894640108803   -0.25882671869700
N          -0.28052291497196    2.26962907508018    0.26144232702498
H          -1.19296907211468    1.72878777643006    0.19165429881085
H          -0.42991248969765    3.27150102186733    0.27980748350014
H           0.22286115799901    1.91509127501801    1.13071879747615
H           0.32023361784863    1.98718097886447   -0.56353695436488
