    26
        -50.46085914  Gyration_radius:  2.53273601781 Dipole_moment: 4.742
 S           1.77288328211754   -0.96892805651563    0.54120288652600
O           2.44257675117839   -0.89933390595713    1.82352782542623
O           0.44360696404775   -1.58935798175785    0.67846984696509
O           1.69321346473792    0.30007106244570   -0.13991849189684
O           2.61523721600552   -1.94344195345050   -0.37521835171192
H           2.80021171427784   -2.68668767014108    0.19153676938962
O          -2.10765982078623    1.23614586701956   -0.12151603279364
H          -2.65219259497773    2.01985089929214   -0.20132372452880
O          -1.68288689033440   -1.48830388691231   -1.01728498737526
H          -2.05512017478865   -0.65710861262038   -0.69582372704998
H          -0.89753668752027   -1.65852767208107   -0.46733357468646
O           1.59795121021698    1.53212855432544    2.31975540170199
H           2.06406949452364    0.66448910485874    2.32691264226861
H           1.80907280940253    1.89154921259941    1.45084659887663
O          -0.73765039248825   -0.56623600021183   -3.35419665938419
H          -1.06519542387508   -1.05335581048815   -2.56477793083461
H          -1.43097238279615   -0.62018250176297   -4.01288711369899
O          -0.11902142658195    1.49284987521241   -1.70675796353728
H          -0.26422483494384    0.85847625460548   -2.43799969595361
H          -1.33168037413455    1.36972597221165   -0.76978658138243
H           0.62613779663465    1.11515685737396   -1.20054760131760
N          -0.72720276891673    0.33889454663649    1.96978306916264
H          -1.33864651898990    0.79313613571248    1.24295773043920
H           0.11812348372278    0.94690122925593    2.19248487816702
H          -1.25103917464793    0.11021104031900    2.80804039162640
H          -0.32205471106998   -0.53812253999422    1.51985442557069
