    26
        -50.47229191  Gyration_radius:  2.48006880763 Dipole_moment: 1.991
 S          -0.89847070711071   -2.09092173381541    0.12809362849698
O          -2.03282886127497   -1.74472737337570   -0.70588874618831
O           0.36179862685811   -1.64524885320361   -0.45916351474703
O          -1.02915310594344   -1.66456943261263    1.50618848093360
O          -0.84744576816180   -3.67460368710905    0.15620577174024
H          -1.07175970164491   -3.88582250180361   -0.74378068187973
O           1.70010727845135    1.87300675833369   -1.02704057813971
H           2.19056070123328    2.42177094147265   -1.63928542358916
O          -2.18911353947941    0.83971836501795   -0.72448814624475
H          -3.11639093071315    1.08208994451534   -0.71972236962340
H          -2.16715756737742   -0.15035044142865   -0.67709037810774
O          -0.36760084575557    2.25822651775437    0.74957649056169
H          -1.08174382027672    1.81990591558658    0.24912825574549
H           0.38261177092907    2.31781210129664    0.13090746186409
O           2.47810451868396   -0.28939618407633    0.50374641667463
H           1.87772805351995   -0.93586826677207    0.08450342875255
H           2.41820819790816    0.50545600261212   -0.05647391102271
O           0.07156854938414    0.27151529770827   -2.28128444726809
H           0.19174494921828   -0.52812335924384   -1.72761037793062
H          -0.81008843298210    0.59557833655214   -2.05145241859657
H           1.11597426529583    1.28048651091975   -1.58271378689991
N           0.56998552031368    0.27624854997292    2.21273369702221
H           1.46837228126328    0.05886737019764    1.68322177244177
H          -0.08965484296105   -0.52879102802236    2.01794825842482
H           0.72311266155544    0.39225623680831    3.20746364031738
H           0.15153073907410    1.14548403271232    1.76627747725812
