    26
        -50.46926243  Gyration_radius:  2.54934760438 Dipole_moment: 4.556
 S          -0.15648313664670    0.41697709871720    0.34237658762178
O           0.06053883623314    0.78832392256649    1.71777613809271
O          -1.02276785678840   -0.87208550871016    0.28486076940407
O          -0.90121038223090    1.40254427357998   -0.43115982263206
O           1.11273838015435    0.09155818323398   -0.34127220518159
O          -1.97736799365914   -0.21266762428956   -2.22439060887903
H          -1.80379738493655    0.48623043288723   -1.55633787552044
H          -2.12862023428934   -1.00487997888474   -1.70054849954202
O          -0.85923022970670   -0.62850423375497    3.77156427919309
H          -1.76582379325040   -0.36575600000073    3.93511791513604
H          -0.51227721928124   -0.00669392275532    3.09794255896154
O           2.26130240714629   -1.00953435986681    1.80311709141575
H           2.05815762727360   -0.34766653603511    2.47058167405396
H           1.99169837345984   -0.60253531018624    0.95910111284379
O           0.29391219438147    2.84102718223701   -2.31797040610363
H          -0.24288626208178    2.46390741234002   -1.58589750207486
H           0.95504191419396    3.39674842250181   -1.90246667364962
H           0.56188883289751    1.28384730345237   -2.94578753206997
O           0.01081790201053   -2.43268154433835    1.97134390613423
H          -0.35166372063423   -2.03187428579134    2.78683673804184
H          -0.62333626057979   -1.55671310604017    0.94347791130362
H           0.94868673696239   -2.13309355724030    1.94319150486050
N           0.54928704233305    0.24404279493079   -2.83526576988453
H          -0.46299189107096   -0.05868541314313   -2.82956243639072
H           0.89508840076152    0.08445211589768   -1.82617686797805
H           1.10929772733906   -0.23628774130821   -3.53045198715972
