    26
        -50.46603994  Gyration_radius:  2.4252866516 Dipole_moment: 5.939
 S           0.20270547272340   -1.79696381272002    0.96779363555931
O          -0.51348967650627   -0.69582877529001    1.58600555863389
O          -0.61348329731200   -2.69162378782684    0.19438281312708
O           1.35568366581222   -1.26729905797783    0.22808595812844
O           0.80542717555792   -2.66526328010608    2.14904493787642
H           0.59041061850439   -3.53804348484050    1.83961775778243
O           0.38957205997012    1.80098667668965   -1.71462354977831
H           0.39484910197585    2.35265538643753   -2.49684091685649
O          -1.94280964190873   -1.27660377462494   -1.69478003893125
H          -2.24169501155724   -0.49550628206373   -1.20403431158150
H          -1.63692085306818   -1.91749146994720   -1.02885101995963
O          -1.79042360341834    1.03523674414372   -0.05860726871083
H          -1.38105271616211    0.35160303805897    0.50240553211313
H          -1.10697826698892    1.35997696081966   -0.66329920725292
O          -0.36834097154962    1.85919690146631    2.31995584995091
H          -1.10440257125003    2.11365761778501    1.74589001851355
H          -0.50450214711952    0.90644472949214    2.46618772776484
O           0.56963385030687   -0.68123483621009   -2.31388275594993
H           0.47639469851683    0.84335242232513   -2.03862535156555
H           0.95837490604812   -1.06127728300549   -1.50743455294181
H          -0.37540137127105   -0.96789086760493   -2.29993557469709
N           1.59012237674331    1.30203140985023    0.61264074585467
H           1.27483311342400    1.67754576464913   -0.30992075926280
H           2.52929891155381    1.61093528638628    0.83855670339115
H           0.88797907289860    1.60385408806823    1.35255370390136
H           1.55421509407611    0.23754968604356    0.52771436489242
