    26
        -50.47229233  Gyration_radius:  2.4803756268 Dipole_moment: 1.992
 S           0.34170217625318   -2.21551567394807    0.41536210607398
O          -0.76755952048407   -2.62531524914652   -0.42367702124484
O           1.19875794735829   -1.24299620527418   -0.25641178476668
O          -0.05310691780896   -1.76284770647462    1.73342795593243
O           1.22114026979533   -3.51504836490381    0.63657503335342
H           1.17542717942589   -3.92108847966321   -0.22244990953178
O           0.49458236278552    2.35024570990812   -1.29786069515133
H           0.64556955181656    2.99762849550431   -1.98668950215186
O          -2.26717703887976   -0.54354774157016   -0.77146344848840
H          -3.18104415584284   -0.83238953558730   -0.77743410547527
H          -1.72674192465169   -1.35636805823053   -0.59720256550775
O          -1.54099556950805    1.78840910582764    0.46850733248296
H          -1.89175043629437    0.98218857647086    0.04482538358062
H          -0.90906917958525    2.16256799129415   -0.17174428223214
O           2.22984359011891    1.13405737081116    0.47265746817883
H           1.78344301465230    1.70148094492135   -0.18151024597586
H           2.08286466450141    0.22254725545548    0.15383196609419
O           0.02114021783200   -0.00864683397420   -2.29806928452928
H           0.33986664153382    1.47599341486575   -1.75931684686232
H           0.52113825276208   -0.54897291187958   -1.65114027020462
H          -0.90772166836968   -0.17675632903742   -2.08792018658706
N           0.23681951566389    0.80009442412115    2.14531339652562
H           0.11465293371264   -0.24913653689956    2.07168219320178
H           1.13673396791832    1.03168750410548    1.62447433776245
H          -0.55787101948421    1.25235763535220    1.60328174099395
H           0.25935513473096    1.09937122795099    3.11295125449510
