    26
        -50.47229173  Gyration_radius:  2.48011866463 Dipole_moment: 1.991
 S          -0.83724815586230   -1.87489950452676   -0.98987090248081
O           0.20957182997786   -1.73423586111908    0.01819057768071
O          -2.15812537835328   -1.68109527834547   -0.42421415490204
O          -0.57159436629403   -1.05990907824859   -2.15739481926475
O          -0.79137716658687   -3.38121537673888   -1.47994167306535
H          -1.25846879531580   -3.82134988112902   -0.77782450629169
O           1.35266552491575    1.33462440326713    1.95918752390763
H           1.65433155062976    1.63618314312441    2.81626234580892
O           2.51821039797758   -0.35380781711310    0.11160283660127
H           1.82085260967480   -1.03719535041916    0.13954208612117
H           2.30727725462353    0.24729575974499    0.84869947224777
O          -2.30052805890075    0.78988187447080    0.33556833548366
H          -3.18829326707989    1.10504068153572    0.15875011683781
H          -2.27099603831487   -0.14162019852023   -0.00268434043041
O          -0.12959236639979    2.40204060792712   -0.10093140810960
H          -0.95845537665778    1.90484463601063    0.03466102624561
H           0.41665233024138    2.21245038127670    0.68314736728346
O          -0.57130802673468   -0.40754493111110    2.18814597617322
H           0.63264875979190    0.66181939118333    2.13254930546932
H          -1.35096169807055    0.04737572850580    1.84124044256088
H          -0.30476885718839   -1.02020747924891    1.47119115590273
N           1.17091012701273    0.85109938108252   -1.78966677912552
H           0.64822584916370    1.58804146207253   -1.22968996231111
H           1.59831773899517    1.23571814557881   -2.62381931218298
H           1.88278836257288    0.41001588436387   -1.13143806236331
H           0.47926521620824    0.08664927639884   -2.03126264779505
