    26
        -50.46926230  Gyration_radius:  2.54889171859 Dipole_moment: 4.560
 S          -0.25744474722445   -0.42970144019010   -0.25418409868201
O           0.62202453549852   -0.95376212576740   -1.29152856875600
O          -0.37238180305837    1.03815793652150   -0.38251462855689
O          -1.55149061550117   -1.06185110601442   -0.20370586313602
O           0.49813198266641   -0.69044914126434    1.07861421152770
O          -2.43821343749207   -2.38604166039865    1.92523946599299
H          -2.20022275023122   -1.96532055851883    1.07246999256514
H          -2.09298002984813   -3.27889289116086    1.88754179181723
O           2.95060422588358   -0.41031183678899   -0.16626471861032
H           2.74779980947032   -0.54375225857093    0.76432793832020
H           2.19610222256117   -0.82677764565370   -0.63744973882624
O          -2.56880973772218    1.23577288294694    1.12356466644307
H          -1.80374604181304    1.31422680054067    0.52438626989108
H          -3.10061720844436    0.52664799482564    0.75052590097125
O           1.21733693595657    0.50006133150053   -3.43409255065194
H           0.99784937517487   -0.18113002680737   -2.76015114463709
H           0.41017811124206    0.65323541337790   -3.92777719051183
H           1.83636719282941    1.52124285434997   -2.22455169011182
O          -1.18454106221418   -0.20696303990581    2.89036728064335
H          -1.74608648983690    0.46601913322304    2.44115430887697
H          -1.70179571640077   -1.03562767744635    2.83649662876753
H          -0.14383914584137   -0.48065428132378    1.85705594799745
N           1.93078987763246    1.78568254137030   -1.21711223133570
H           2.55217610396410    1.06372441671734   -0.76005014832705
H           0.94854238812503    1.60925603405885   -0.80774686964782
H           2.25426602462109    2.73720835036448   -1.08461497202288
