    26
        -50.47168660  Gyration_radius:  2.49105871427 Dipole_moment: 3.002
 S           0.53711084317018   -0.60098130855907   -2.15615740677084
O          -0.45153094458122    0.36159214886706   -1.67628909162783
O           1.88827294497462   -0.13318840415526   -1.86589180131575
O           0.27654399437522   -1.94341540403946   -1.70258429145797
O           0.41629750030637   -0.62059922618137   -3.73390419704021
H           0.74508293838138    0.24348109748089   -3.95672264832447
O          -1.58042724321549    1.11915888520866    1.90100167511635
H          -2.33115103750968    1.35191923717279    2.44737426023799
O          -0.21776827755531    2.49546493874182   -0.05309191762166
H          -0.78168189399493    2.21325172152192    0.68984473826054
H          -0.42355253142528    1.86786192802315   -0.77311420341725
O          -0.34800009678993   -2.49277048250820    0.74703268478257
H          -0.07316692456412   -2.31303200402705   -0.18830342371891
H          -0.23904116845163   -3.43580139313027    0.87715924527281
O           0.66079613239137   -0.44576629775182    2.22969604067455
H          -0.12879515382651    0.11923116781239    2.31299996634049
H           0.34981773752686   -1.25423691624281    1.77900311144028
O          -2.25852236246387   -0.58094430820758    0.05137287019503
H          -1.70449471545240   -0.26118972155981   -0.69006792206094
H          -1.83835593290383   -1.40474250779332    0.33885548143753
H          -1.92251868369386    0.48307253820736    1.20647676190306
N           1.91489205815930    1.05203586416050    0.45442798771880
H           1.16984094109683    1.79825419735781    0.30283421322054
H           1.99458246230798    0.53425405179542   -0.46839709440429
H           2.80641742127279    1.45129095664312    0.72468456708598
H           1.53935201247516    0.39579924115186    1.20176041407667
