    26
        -50.46047478  Gyration_radius:  2.51631371063 Dipole_moment: 5.302
 S           0.86504877449758   -1.57194063185280   -1.27427217449760
O           0.04107672197545   -1.27317296875216   -2.41767932552786
O           1.36015567437947   -0.40452039801440   -0.56131199786904
O           0.24115428074319   -2.50612372931867   -0.33713628960168
O           2.15174284469409   -2.30782919353487   -1.84958492333733
H           1.81318882578457   -2.65058932979077   -2.66987493624732
O          -1.88458049001515    0.47624686968499    1.14831315618037
H          -2.80865865874770    0.55240015406057    1.38853188667549
O          -0.81229836000589    2.85318048625555   -1.72402915945289
H          -0.21968946812971    2.67819458897023   -0.96451624144329
H          -1.23608878170697    3.69559178503618   -1.55643234997887
O           2.18067707939995    0.07811168897156    1.91767564073812
H           1.94177022499589    1.01345610501060    1.89316866306322
H           2.22376874111321   -0.17725652935954    0.97468155335557
O           0.46195018755569    1.91271757756797    0.48873695659505
H           0.81299223611723    1.15410904411942   -0.01643143285531
H          -0.36772579345259    1.59622219566057    0.87246387902934
O          -1.83292534646692    0.31787874919473   -1.40982704622801
H          -1.87574443718879    0.36373062211024    0.14066992736675
H          -1.54832433052567    1.20372013169964   -1.70541746130400
H          -1.20386501895037   -0.30631456178714   -1.82587749404234
N          -0.06879685517253   -1.34663034019647    1.93045197576996
H           0.06879396595975   -1.89769406402148    1.01054385482662
H          -0.28071205435667   -1.97326498718764    2.69864336901014
H           0.82503246314520   -0.80676938987512    2.09691885610856
H          -0.84794242561979   -0.67345388464426    1.75159112367323
