    26
        -50.46085914  Gyration_radius:  2.53273841667 Dipole_moment: 4.742
 S           1.24360775317372    0.61980328351670   -1.56334043640132
O           0.64085196559885    1.55443949118489   -0.59696641422408
O           2.68863752859310    0.71393165789950   -1.53677930532918
O           0.74734273533196   -0.72173426789971   -1.37727921377021
O           0.76853569745329    1.10407098850761   -2.99122946743213
H           1.27256771413077    1.89842384500308   -3.14213113210770
O          -1.01934983518612   -0.68566068964789    2.11557497228352
H          -1.27660044827408   -1.31056784788145    2.79409559412110
O          -3.31813621412326   -0.12864562728231   -1.04364327951468
H          -4.23498483355444   -0.07623906102085   -0.77139622987245
H          -2.84899283145017    0.60373792563164   -0.58400767372986
O          -1.86370323942963    1.54569414733943    0.46831019219816
H          -1.68449447622401    0.93505840479031    1.19479846265983
H          -1.01831058288697    1.65461404968021   -0.00248221695597
O           2.95037771198805   -1.24167250095821    0.18910437599943
H           3.09742509054829   -0.53735352898387   -0.48351950660507
H           2.34196972616651   -1.84620729573079   -0.25035679157936
O          -1.37778213609571   -1.79799788702446   -0.15770098424059
H          -1.18139554086036   -1.15845570704672    1.22650154625615
H          -2.14619107572506   -1.35036458528050   -0.56683437900804
H          -0.61146297140698   -1.49570420880692   -0.68261098006525
N           1.37551734057291    0.34729979730504    1.58466984918810
H           1.81638719695187    0.89630466048787    2.31514923558589
H           2.04841970223300   -0.37006096037172    1.17669809343954
H           0.49277788876790   -0.11379748410186    1.92619258283952
H           1.09698615379036    0.96108340067468    0.75918310628386
