    26
        -50.47168579  Gyration_radius:  2.49098892357 Dipole_moment: 2.985
 S           1.23295509077825    0.12739701993601    1.94142794546942
O           1.68939074296751    0.03949520736023    0.55608006363002
O           0.56695989468636    1.40335161527687    2.17921672104289
O           0.45851462005469   -1.01670490230104    2.34983314182263
O           2.53521194847521    0.14122819817136    2.83996514922358
H           2.93432915487924    0.96357653107946    2.57756754978701
O          -0.34642790863137   -0.51297579369156   -2.64044127008275
H          -0.34446482008307   -0.93649663235601   -3.49896515504603
O          -2.25654669773082    0.01870784436314   -0.73014451565891
H          -2.07989263350843   -0.72746496363463   -0.12573807698832
H          -1.73652970381809   -0.17374552102902   -1.53151316204400
O           1.13790749775219    1.55554324166421   -1.59785036816459
H           1.55338848110118    1.02714230896790   -0.88871431509255
H           0.69069304260464    0.90102899129051   -2.16452900050215
O          -1.43630102321113   -2.00657449932488    0.89292581671362
H          -1.96708337852731   -2.58215091628061    1.44526438243051
H          -0.74259047794556   -1.62181757255411    1.48731381928831
O           0.75251955158616   -2.03714203522023   -0.84033111943304
H           1.21976466922454   -1.36469310637346   -0.30334471108594
H           0.00314457411930   -2.31559394944950   -0.29384706778948
H           0.10704718767285   -1.14724607902813   -2.01110102232988
N          -0.81484471415042    2.07785823341189    0.07639848157935
H          -0.32457839338205    1.84313123445723    0.98799717162433
H          -1.27427882277575    2.97946198268296    0.13328345188643
H          -0.05635215628532    2.05968909745774   -0.67140792070469
H          -1.50193570585311    1.30499447512291   -0.16934597957324
