    26
        -50.46085911  Gyration_radius:  2.53269506547 Dipole_moment: 4.743
 S           0.32382767822578    0.78810672309353    1.91002943585169
O           1.39541870713690    0.63826654691373    0.91004513972155
O           0.18548518283000    2.17282037275085    2.31143162500735
O          -0.90807006835309    0.19156833219318    1.45475917923384
O           0.79858101650223   -0.02332782772817    3.18108677559054
H           1.49287265519949    0.51542653727264    3.54921691313773
O          -0.39545630702255   -0.41918012390102   -2.37722311788733
H          -0.93248501503051   -0.54378132627486   -3.16026553845049
O           0.35126046641128   -3.46286598589297    0.02173726610470
H           0.56532136343287   -4.23900341086983   -0.49717169452530
H           1.02255040893106   -2.78120467007648   -0.20719726562751
O          -1.68874547288108    2.67046609245948    0.54765979540609
H          -1.05553342098645    2.70384142293247    1.30128554226820
H          -2.21026208020427    1.88067352118006    0.72931197740333
O           1.84936333466764   -1.40484812301375   -0.83019525629566
H           1.25817569109513   -1.10109497530660   -1.53093096899112
H           1.79452682435543   -0.73414066459453   -0.12640274024400
O          -1.55818563665861   -1.59511435427224   -0.42823102156539
H          -1.41278498541054   -0.98833512999325    0.32336838469488
H          -0.88394327314729   -0.90484381245219   -1.62505168742311
H          -1.01550390856985   -2.38163687527447   -0.21592653327470
N           0.20803812205386    1.82278489303364   -1.07591926355479
H           0.81210782951300    1.39572850740925   -0.30880653817112
H          -0.62968141963810    2.23665121146980   -0.56524931303881
H           0.71862325619212    2.53382674209194   -1.58887166594486
H          -0.08550093870523    1.02921636686950   -1.70248942945120
