    26
        -50.46926194  Gyration_radius:  2.54917133898 Dipole_moment: 4.550
 S          -0.53634356038338   -0.08171980665997   -0.14310503940936
O          -1.60572046050003   -0.96611360374229    0.24544114482418
O           0.71202678788255   -0.82357131211849   -0.41784078339832
O          -0.85908282603415    0.78549891252049   -1.26915741696061
O          -0.21567004985940    0.88810279365445    1.02805232784310
O          -2.73609016036140   -0.91550227438167    2.65183452538806
H          -3.41413247676493   -0.23875006679773    2.65080951313858
H          -2.42769911884589   -0.99417494741822    1.72474259282632
O           0.31309744841522   -2.66727046799734    1.47231850945439
H          -0.60576827345793   -2.89556059672674    1.30351281563162
H           0.56931758239197   -2.09730885638210    0.72390104539409
O           0.76710612670339    2.79424292548767   -0.71773804691613
H           0.00383831452884    2.23033056356212   -0.97116584895129
H           0.74699499609416    2.79720528650101    0.24374715602462
O           0.26708100133417    0.40617283603278   -3.64496049016106
H          -0.00731937110791   -0.45138163652880   -3.97365222324169
H          -0.30113958236887    0.59198984851454   -2.86456299288359
H           1.66211459658214    0.69544738758044   -2.71878860937025
O          -0.09842495118200   -0.57490551219354    3.07592328800618
H          -0.13177635617245    0.33126119156412    1.89117191249157
H          -1.05733512925438   -0.69657467330510    3.22701820725221
H           0.19930515484626   -1.42384956946433    2.67491007321328
N           2.13225563988324    0.80643385520548   -1.79101934012616
H           3.14009356234439    0.71016403730952   -1.84214159377623
H           1.66441957753390    0.05821043349233   -1.17051201454332
H           1.81885151777205    1.73162326228754   -1.38873871173688
