    26
        -50.47229299  Gyration_radius:  2.48043584983 Dipole_moment: 1.994
 S           1.97498607583393    0.18091172650850   -1.12366162366284
O           1.65790570619951    0.46466650271009    0.27282581872382
O           2.05436818371019   -1.24422236121138   -1.37902954544877
O           1.09603305161170    0.89306501454722   -2.02840729220392
O           3.43238369664095    0.74779217833395   -1.38061150947461
H           3.97088854976730    0.04464252101067   -1.03349713259331
O          -1.52157912442017   -0.18863253515124    2.25958684799740
H          -1.85592820420512   -0.46111535126797    3.11423357386550
O          -2.33248069746163   -0.47147955249908   -0.35588963522209
H          -2.23244016559465   -0.41626360818856    0.61169087108706
H          -1.68140461175680   -1.13838843021737   -0.64543902835902
O          -0.32163818544144   -2.20930274613762   -1.01997170320504
H           0.57732363859242   -1.83744711034445   -1.21102853324504
H          -0.46455159518776   -2.89787506774268   -1.67120033487968
O          -0.13524574117361    2.06880247938586    1.47954044048235
H          -0.66595931582006    1.38974699911922    1.93379016001039
H           0.66974534371775    1.60051621149798    1.18504053699678
O           0.56414403319920   -1.58768626395185    1.56504750912278
H           0.25904471611580   -2.11848562067811    0.81644722956537
H           1.09561788546737   -0.87180427592474    1.15821779153366
H          -0.71801002093272   -0.75563845749032    2.07551546435305
N          -1.10466858683813    1.78652716447779   -0.94183811124730
H          -0.22749101720859    1.48477324543439   -1.45260292824978
H          -1.58582935536816    2.52332595614408   -1.44385092958305
H          -1.71226978042543    0.92357852306714   -0.81534144503146
H          -0.79294447901519    2.08999285857058    0.03043350865793
