    26
        -50.46158908  Gyration_radius:  2.58971409293 Dipole_moment: 2.405
 S           0.05979367539418   -1.56697947732709   -1.59832153906300
O           1.34717925270247   -1.37382082020348   -0.94912284085205
O          -0.56074364973199   -2.83157430330783   -1.30234332603740
O          -0.80633418076489   -0.41082632414864   -1.41951568262302
O           0.36616078016579   -1.57788632882157   -3.17053285377432
H           0.59719417550105   -2.48622606613544   -3.33831023580792
O          -0.72294448739348    0.48999605520809    1.95474029777740
H          -1.47136538226814    0.84991490239768    1.43256368693047
O          -2.42415513323520    1.19424651798171    0.01389321278360
H          -2.26029898501608    2.02127615376765   -0.44414935860478
H          -1.99989781695623    0.50773482602464   -0.53240494286551
O           0.33248162632319    1.88150910349184   -2.00476621892103
H          -0.16087913944626    1.03653071372231   -1.88596706656971
H           0.75490029660874    1.81648177460709   -2.86213377586960
O           1.82252631093903    1.30538556413641    3.01806945490633
H           2.11799175437225    1.00329338224327    3.87744789279500
H           0.88049326196536    1.09250183907065    2.96119348771972
O          -0.98826132789526   -2.08300701799929    1.20753408348367
H          -0.78118589603199   -0.47914152691976    1.81830253308787
H          -1.88658325691475   -2.39209927840698    1.34593652740338
H          -0.74568087481208   -2.38247010453994    0.30936138030888
N           1.33136377908014    0.89742113111647    0.31234231079093
H           1.13266256416447    1.56726184667378   -0.45051083224248
H           1.46716243257047   -0.05160635326475   -0.14181487543198
H           2.11490998069339    1.16963386146777    0.90461093339641
H           0.48351024997191    0.80244995918951    0.94389774726702
