    26
        -50.46282803  Gyration_radius:  2.50841453881 Dipole_moment: 5.070
 S           0.84044693273579   -1.92801582965162    0.26139525243257
O           1.39202193865488   -1.98819757215942   -1.07175071655670
O           1.74252009362277   -1.27098708030074    1.20701225996604
O          -0.48883707370368   -1.34461503702545    0.32498956811255
O           0.69070406831448   -3.42805560178428    0.74737837191037
H           1.45333374536006   -3.81937082714284    0.33565387348023
O           0.28538165715023    1.91332425007382   -1.17516669469739
H           0.50682132500323    2.64151463145214   -1.75650182783522
O          -2.13608005223270   -1.21784648334382   -1.80068137201301
H          -2.76806614810469   -0.57835627542999   -1.46214713941656
H          -1.58782627638100   -1.47334807530502   -1.03478935390711
O          -1.82053137311689    0.99482067479566    0.41964591648019
H          -1.28846356018040    1.48374413543244   -0.22581154907281
H          -1.42880250233683    0.10094513934456    0.43598203124221
O          -0.73593066307643    1.65215564155422    2.72025740910645
H          -1.31438230938158    1.50789892470649    1.92515833631137
H          -0.92568226313202    0.92619468245855    3.31713670879050
O           0.23486168916478   -0.18543277258621   -2.62882714897728
H           0.76456126026273   -0.86586988653154   -2.16240362971070
H          -0.67911183719418   -0.53108160501803   -2.58861478865834
H           0.27848451263906    1.08385584848242   -1.76491108120388
N           1.41393344182805    1.28220826250357    1.19612612091711
H           0.64898135766325    1.48870452345100    1.89706056297534
H           1.58245161347647    0.21849130767307    1.20125295691161
H           1.06998456134915    1.56439520016274    0.24898512525830
H           2.26922588158940    1.77292385418790    1.43357081814801
