    26
        -50.47229286  Gyration_radius:  2.48041434556 Dipole_moment: 1.994
 S          -1.55155835046536   -1.63344085301133    0.34773215353535
O          -1.70098636961930   -0.30312461398786   -0.23471849712124
O          -0.90771509697495   -2.55353418751457   -0.56948982396257
O          -0.93460703579325   -1.57934438064630    1.65716457107139
O          -3.01606306646808   -2.19706458018679    0.56878759056260
H          -3.22991559172126   -2.51078058540816   -0.30341412701194
O           0.92793121323225    2.28386294922415   -1.17367629093741
H           1.16415907597153    2.94311984320779   -1.82638741284551
O           1.51140824140701   -1.70011201968603   -0.92297122841528
H           0.60457153084286   -2.06138647621821   -0.74966601400197
H           2.08854645320102   -2.46217061963530   -0.99231452973152
O          -1.14821583217265    2.18014054756189    0.64441322954840
H          -1.56413798721077    1.37400738749046    0.28218485303622
H          -0.47147867534715    2.42722399621144   -0.01138628562092
O           2.30265290687269    0.53552103930136    0.44834681457797
H           1.98926076753563    1.24693269672783   -0.13898961679212
H           2.11023678952461   -0.29521504400302   -0.02636426741687
O          -0.07866805831930    0.15681122166092   -2.29270265272400
H           0.53566603215114    1.51361382058963   -1.67764560728074
H           0.58576909779206   -0.52996702434715   -2.14397617630159
H          -0.78285618958306   -0.03700910160134   -1.63925551989759
N           0.32254451164544    0.64841465798815    2.18497560487865
H           0.50123335450546    0.84168810507152    3.16330414836053
H          -0.18752254091268   -0.27159151027053    2.06334186411501
H          -0.28907793063122    1.39021194257323    1.72648957361992
H           1.21882277054268    0.59319279890787    1.61621763675369
