    26
        -50.47116993  Gyration_radius:  2.45858210832 Dipole_moment: 2.487
 S           0.32298972722860   -2.09456211767616   -0.79422208108607
O          -0.62777860868973   -1.95540256629910    0.31910058050499
O          -0.32523602922655   -2.11923619414246   -2.07386007921238
O           1.39065857312381   -1.11625819012802   -0.66692669350327
O           0.99250249795276   -3.52523155490279   -0.60523111576984
H           0.75065338771195   -3.96445410996225   -1.41441059134308
O           0.72465565969272    2.62822761028775   -0.04697868243238
H           0.99822434572230    3.48234060766494   -0.38206978946422
O          -2.02822022104917   -0.13992343983114   -1.01981605866476
H          -1.58248828336459   -0.85897218385617   -0.52545040128712
H          -2.38692651593692   -0.56995694683376   -1.79972191593899
O          -1.62593284477441    1.73075982353982    1.03397866949002
H          -1.98742686914591    1.22476919812714    0.29090825704028
H          -0.86369803138099    2.22405348582108    0.67521655525096
O           2.11180583059238    0.62551899916272    1.24970931401931
H           2.07282113610481   -0.04238186102841    0.53680574339325
H           1.81225066362756    1.45557363331711    0.83652177094078
O           0.32842126813832    0.94394587682408   -1.98144524359974
H          -0.59502757456650    0.66586997240148   -1.85825157048343
H           0.60889434403960    2.03443509650739   -0.84596536334487
H           0.84910283138373    0.17064171136266   -1.69400479217672
N          -0.19420088927232   -0.16555120421023    2.19060723387352
H          -0.36478790362956   -0.97878076767631    1.53968091336898
H          -0.85288575509060    0.61046075287743    1.88675427361533
H          -0.33203396368572   -0.43044432362565    3.15859158847137
H           0.80366324449350    0.16455871227933    1.99047946833758
