    26
        -50.47116804  Gyration_radius:  2.45869335496 Dipole_moment: 2.542
 S           0.18935441628279   -2.21470258976172   -0.42633276962105
O          -0.61213567344205   -1.83952400972160    0.74892207564536
O          -0.61703555529755   -2.45047047331529   -1.58924565224755
O           1.27740310677990   -1.26972738398705   -0.61353237951613
O           0.85925939309736   -3.60965703569846   -0.05690029450266
H           0.47233010893337   -4.19140842139631   -0.70349395681862
O           0.75603354459085    2.54652969861640   -0.62176140300614
H           1.00094368201875    3.31355474451656   -1.13972584523151
O          -2.14048703905645   -0.24551768485840   -0.72420279944110
H          -1.64703465045106   -0.87934082871985   -0.16295557888093
H          -2.60244897928578   -0.79595492484716   -1.36094052991529
O          -1.45423618455330    1.95160507111988    0.88214943246844
H          -0.73580617337679    2.34224270241217    0.34904633570638
H          -1.91332760299584    1.33270522310111    0.29481573724058
O           2.26328552126115    0.76105789562320    0.84666803107625
H           1.92694648240281    1.51306492769763    0.32617430676567
H           2.12458145309785   -0.02322872294560    0.27970839492912
O           0.09034223642971    0.55650879276919   -2.14921373868103
H           0.63146722681453   -0.17108082428898   -1.78946069935314
H          -0.81408030473340    0.34106447389042   -1.86477534929893
H           0.53029941098250    1.82279806588855   -1.27727415948904
N           0.08144649207859    0.24342765899860    2.18872751652096
H          -0.18247548979817   -0.66742160786153    1.72487983936963
H          -0.59778851282834    0.97615610517492    1.82787271258268
H           0.06181022270530    0.16440674146890    3.19840799462931
H           1.05135288834092    0.49291238612073    1.81244279907612
