    26
        -50.46282824  Gyration_radius:  2.50870274518 Dipole_moment: 5.068
 S           0.38410782369304   -2.07394784140754    0.21278865426657
O           0.18965171418500   -2.36463228790614   -1.18826194350830
O           1.75556233449486   -1.66099489343080    0.50970892783053
O          -0.57075269729098   -1.12345445354856    0.75710079243497
O           0.14472727091672   -3.43598196393279    0.98503934912205
H           0.49270966266359   -4.05512180736586    0.35254719975036
O           0.11703108164678    1.67884154771432   -1.51348898246641
H           0.19033926365616    2.27804597468005   -2.25701299765536
O          -2.95872236122639   -0.62664450558540   -0.38211656312725
H          -2.18559554460747   -0.99206049479868    0.08823592876667
H          -3.17779049526976    0.18773676442568    0.07803224717830
O          -1.09730844381717    1.50672521747777    1.00022097768953
H          -0.84827653346119    1.78171675116283    0.10516977363354
H          -0.96861134495313    0.53913767377316    1.00600430931297
O           1.08633475544909    1.93926841446074    2.39498680329826
H           0.17930096346341    1.92846662887378    1.98906152091621
H           1.04759545522855    1.33500264848484    3.13841130338300
O          -1.11982222782698   -0.38631551170792   -2.36542882412665
H          -1.95146157240383   -0.44413590292896   -1.85405172182967
H          -0.36796535716099    0.85798623348673   -1.86954439612911
H          -0.60618650481377   -1.16684245334940   -2.06865772472234
N           2.07170203016035    0.87055173359378    0.16601788508039
H           3.02229940982331    1.09822257482309   -0.10455812305976
H           1.38831755024829    1.19087979043689   -0.55878484592308
H           1.96694435932638   -0.19357468614008    0.29524186110758
H           1.81586940784803    1.33112486870883    1.08333854877211
