    26
        -50.47039566  Gyration_radius:  2.40109075334 Dipole_moment: 2.075
 S          -0.31227650685531    0.90086149222762    1.51448284410701
O           1.04933290667405    1.13943477386293    1.07471186920187
O          -1.28422695752288    1.41796148474647    0.55102043249370
O          -0.58454985743011   -0.47577615282950    1.86221458301425
O          -0.48182926786775    1.75067256851847    2.83590752807459
H           0.21155788502001    2.39641655547865    2.74931243912841
O           0.40084836211108    0.39375727887973   -2.72111854855407
H           0.50304757684519    1.29618911420686   -2.34092218340868
O          -0.88556742648069   -2.24043928548521   -0.15028065024277
H          -0.94988646790705   -1.80521532165641    0.71938577155168
H           0.03659161756806   -2.06324733166642   -0.41888483051122
O           0.45060561495542    2.56942769085311   -1.15935695183890
H           1.20921457656682    2.37986465556286   -0.59534420308671
H          -0.31093102568210    2.33102408142675   -0.60091744416261
O           1.64334465319967   -2.03532205149022    1.99270892106621
H           0.88291142850232   -1.42841259293571    2.04626974018020
H           1.46535494169534   -2.74316234689119    2.61335152773362
O           1.50434205445170   -0.94200693410854   -0.53493410220444
H           1.99836721315420   -1.53274919607127    0.04861061098040
H           0.99692164488947   -0.16891155447819   -2.20363468568056
H           1.38530909313721   -0.14142131502227    0.01590606013764
N          -1.82176542457807   -0.19936381221586   -1.47985275182695
H          -1.61203527354343   -1.14898072606844   -1.04295156578393
H          -1.77437574016801    0.48809892014864   -0.68869574278645
H          -1.00256431602252    0.03017183933759   -2.13509517307898
H          -2.71774131472739   -0.16887183433022   -1.95189349451374
