    26
        -50.45377502  Gyration_radius:  2.62886617669 Dipole_moment: 6.285
 S           0.04305226956630    0.21284691610040   -2.63319413650059
O          -1.35050409305176    0.58309346922148   -2.71498162839676
O           0.70279218242604    0.85159923089563   -1.46596742157612
O           0.33229484568979   -1.19458156178910   -2.64729335820451
O           0.73972959927104    0.86610596499746   -3.90801077995164
H           0.19478067420263    1.63016492172355   -4.07095296433611
O          -0.05085779403404    0.44537676634647    2.57834050262636
H          -0.40225290139821    0.87888405377219    3.35674843439255
O           2.44654258763532   -0.48437913398830    2.07074954985174
H           1.58679867114518   -0.14435993322251    2.39443786831680
H           3.00238986260010    0.28381637450729    1.92839806837170
O          -2.54419699763566    0.50580827573733   -0.32627031978497
H          -2.29901575110601   -0.36811039416741   -0.00138327576162
H          -2.23552884343635    0.54446681518650   -1.25543114780334
O          -1.20172991934920   -1.57252319967821    1.23174709779208
H          -1.56663431260165   -2.25864458434732    1.79153249646023
H          -0.88340865341059   -0.85183495993808    1.82138073211860
O          -0.55411964269161    1.98797863536415    0.61011722621101
H          -1.43389356002250    1.62745751355346    0.34543752371529
H          -0.20325571157555    1.09950676505139    1.80839232616709
H           0.01099198878362    1.75535150279802   -0.15149474506485
N           1.15354684321254   -1.30504682241276   -0.13851467609355
H           1.84028134512017   -1.18473644665272    0.63725315200812
H           1.42232225555743   -1.96441922617690   -0.86640383081853
H           0.23433475138591   -1.57636422773271    0.25789504521801
H           1.01554030367829   -0.36745669512630   -0.65253175894931
