    26
        -50.45377482  Gyration_radius:  2.62913865613 Dipole_moment: 6.282
 S           1.35892658546860   -1.68668156633485   -1.51434389533552
O           1.01189898974729   -0.24266260671549   -1.51151722901604
O           2.30343758525576   -2.00059238123840   -0.46776927553077
O           0.15920194042864   -2.47675206938155   -1.55042025086942
O           2.13763503894780   -1.92016849212589   -2.88416176335179
H           3.04163203007836   -1.74750762927588   -2.63862969374542
O          -0.82755462295191    2.05854326487604    1.38738444839402
H          -0.69795792303076    2.75031151351840    2.03698298389980
O          -2.42876185953952    1.99150812520133   -0.80176288483690
H          -2.02652524428944    2.56733829753353   -1.45445324155552
H          -1.93114270996997    2.13093624358112    0.03040108239056
O           1.68209002417587   -0.79758910123969    1.83523392763336
H           2.00051539373108   -1.31401326480129    1.06580543366935
H           0.75374571056693   -1.03248278394883    1.94655639543036
O          -1.23001909630229   -0.54518018854724    1.90484377134415
H          -1.09465280038814    0.42833006959593    1.85565058456970
H          -1.84923343151983   -0.71125078653525    2.61640520775645
O           1.48741003436068    1.47800054365712    0.48697372856447
H           1.40711963983209    0.99872388185138   -0.35999432950813
H           0.09673129715981    1.87870430022451    0.99081365084124
H           1.72975210509852    0.76061733958267    1.11995899116478
N          -1.45193615463340   -0.51279733483545   -0.82389254502500
H          -0.43601108679939   -0.33037228359657   -1.13518222423855
H          -1.42917528100488   -0.72652609535393    0.19077731117786
H          -2.02845384091078    0.34184170442585   -0.98210566556825
H          -1.73867233352265   -1.34027868010921   -1.34355452827193
