    26
        -50.47229146  Gyration_radius:  2.48093115744 Dipole_moment: 2.006
 S           0.67091487221863   -2.08658042103424   -0.62433650586402
O          -0.37065712136420   -2.20871522208278   -1.62615031203678
O           1.36510207199401   -0.80595697108296   -0.71517252425734
O           0.22259137139030   -2.35667949654853    0.72664941471978
O           1.73513948924258   -3.20728625393235   -0.97566801416626
H           1.67874853566542   -3.22495644763469   -1.92504473745103
O           0.13562265776159    2.72898859493081   -0.03786299611027
H           0.18574852464289    3.63590611676822   -0.34030649921313
O          -2.16167536229943   -0.41861206146006   -1.08375848542983
H          -3.02258536632132   -0.78988203219628   -1.28281060951651
H          -1.50632248650265   -1.14017476360002   -1.26484016700894
O          -1.78430215184859    1.14259040578709    1.13500256643710
H          -2.01289256853983    0.58699800434424    0.36586829234213
H          -1.21823307512757    1.85245904540480    0.78158485130537
O           2.04176600910572    1.07679677286568    1.08597871502185
H           2.03096398795370    0.40664962823310    0.37558588232185
H           1.51217422993182    1.81672852116048    0.73789380641925
O           0.01473523444618    1.06494675766565   -2.03956473328035
H          -0.87806852773613    0.69639196127602   -1.99121509302336
H           0.11129255369749    2.15731331770596   -0.85865764837811
H           0.59163902022452    0.35853117118673   -1.68094230190832
N           0.12881613373664   -0.26131551655381    2.28339333739045
H          -0.72695427034909    0.27882052595601    1.95802365517086
H           0.98150367499541    0.30411828327664    1.98720822993569
H           0.11012620138068   -0.44395252692162    3.27973748006547
H           0.16480639170734   -1.16312739353254    1.72940439651647
