    26
        -50.46926219  Gyration_radius:  2.54911937707 Dipole_moment: 4.555
 S          -0.41328983197832   -0.32318509558321   -0.19956176404676
O           1.04533000546632   -0.51569468627720   -0.05971255790216
O          -1.10765938661210   -0.94138761971659    0.92290497782925
O          -0.66714898812163    1.20118086176875   -0.03498102623117
O          -0.88447973298281   -0.75111615638027   -1.49246038890001
O          -1.94222401766996    0.91018907256976   -3.27925716448052
H          -1.61326214273449    0.20265093479198   -2.68595156512853
H          -2.87041825920910    1.02282724600482   -3.07071550488205
O           1.60401023145503    0.04827821538645   -2.60940623550440
H           0.93841783266389   -0.48301754037252   -3.05614813243154
H           1.54966705208372   -0.22026193622769   -1.67370702323653
O          -0.76370751979620    0.96697171865741    2.71814042715926
H          -0.80719442836387    1.75516805968369    2.16881353338906
H          -1.12056581935144    0.25485849779287    2.14330898038459
O           0.11281408299516   -2.73149960800454    2.46007479826962
H          -0.48931116456124   -2.17584879469620    1.91690864909378
H           0.32643804019393   -3.49477822017407    1.92109923739704
H           1.13611392865506   -1.39943965123694    2.71822020381469
O           0.13359990427124    2.23463103318549   -2.18869615711267
H          -0.33083004935724    1.67561363258464   -0.88578166390535
H           0.83578770560712    1.59393014265382   -2.44655930692370
H          -0.62968561390221    2.00557540677884   -2.75628201057847
N           1.45760067194069   -0.43637989061125    2.46691324857464
H           0.70184629541264    0.23628953530088    2.77108687356502
H           1.42638182742327   -0.42380125662358    1.38873098887587
H           2.37176937648316   -0.21175389123904    2.84301861291565
