    26
        -50.46516759  Gyration_radius:  2.53862236162 Dipole_moment: 5.800
 S          -0.29023038661464    0.29997949120110   -0.46001282882459
O          -0.35660977186630    0.58374925772893    0.97069925420536
O           0.88104287325000   -0.71232239202833   -0.66800201935273
O          -1.47163019535660   -0.46992742932906   -0.88222671984035
O          -0.05779568401156    1.47590830796826   -1.25818896340644
O          -3.41074407586483   -0.48306594807747    0.99882093837594
H          -3.71923892911881    0.40953302487824    1.16200474951029
H          -2.80170424541434   -0.42131441110805    0.23630216295871
O           2.14954537971000    1.89976131102701   -2.67810359070440
H           2.00803641359872    1.56523129422161   -3.56443872138404
H           1.28507063746876    1.83499258515527   -2.22072921284719
O           1.56929596214702    2.42030816091700    0.92404063628258
H           0.83405214271355    1.80302342265916    1.10166650086243
H           1.25851395353822    2.97727036061445    0.20485744292248
O          -1.32255586266062   -1.36113324563115    2.44412570427525
H          -0.97624817161783   -2.26129212932462    1.30497747686222
H          -0.84352827535637   -0.56699128441757    2.11008601857358
H          -2.25476375657640   -1.15182112062640    2.23007967587251
O           2.99001686119181    0.64047791445037   -0.45006432494136
H           2.98110280206954    1.09510814714040   -1.31591703813469
H           2.68087676811999    1.32317985917580    0.19067717626985
H           1.77689176650064   -0.20394443436145   -0.56785882443389
N          -0.77212555414884   -2.64158760517743    0.29166327471139
H           0.23198461174468   -2.69912753042993    0.12946479748651
H          -1.12841742458450   -1.83569773522958   -0.32975663654878
H          -1.24083783885863   -3.52029788139184    0.09583307125102
