    26
        -50.45156378  Gyration_radius:  2.67105085921 Dipole_moment: 4.834
 S           0.38790544095686    0.75183530040636   -0.42349358574041
O           0.93065621835760   -0.11924566379924   -1.55212746928793
O           0.25481800508117   -0.25017876130391    0.73243244212903
O           1.34854425007501    1.75686566725151   -0.06269494467000
O          -0.91453046087160    1.25869321684039   -0.78192251671679
O          -0.99489578685287    2.97661846483795    1.27369665671250
H          -0.22855931409107    3.52035411819274    1.07331131953022
H          -1.15472164479704    2.44228575278916    0.47515486944230
O          -2.01331081561790   -2.75671768052106   -1.93366730502167
H          -2.00168491999984   -3.47150410398765   -2.57225199327341
H          -1.24891692173214   -2.90920969489180   -1.31800461871176
O           2.38582876063170    2.07210524866369    2.38187728859046
H           2.11422569616589    2.06042666562719    1.44261217870286
H           3.24159205157549    1.64286893069021    2.42174996654242
O          -1.16659088080008   -0.43719955343826   -2.85391753037132
H          -1.57344922853545   -1.29425871224389   -2.55634787708174
H          -1.57867776342753    0.26116316872040   -2.32442457709536
H           0.11861815649862   -0.31876484292377   -2.18425295380174
O          -0.03837411106441    1.05208810362817    2.81426778233318
H           0.87103593564315    1.40808205057178    2.92805390816397
H          -0.55732474764551    1.80797561149311    2.44516328663852
H           0.09751154238086    0.25375053058281    1.67521976499603
N           0.19818713670588   -2.97199086937490   -0.42238463358303
H           0.33306629982239   -3.70492111437441    0.26328817910394
H           0.17111456134473   -2.08610689018462    0.07595865945445
H           1.01793255020994   -2.94501495324606   -1.01729632698507
