    26
        -50.46253642  Gyration_radius:  2.46019210703 Dipole_moment: 5.003
 S          -0.46023555812301   -1.66080948100317    1.14533230049284
O          -1.31473701372041   -2.40395241358012    0.25720460633515
O           0.96442060546025   -1.89263695217075    0.91597672383423
O          -0.74415926849996   -0.23618372041427    1.20879678888840
O          -0.76197119595497   -2.20602077242449    2.61020942545750
H          -0.90611011680194   -3.13284843197807    2.44948088012093
O           1.29632935934739    0.76633560906457   -1.86578669310007
H           1.68151759695668    0.80534121908512   -2.74186818446435
O          -2.66694691113156    0.45029539976005   -1.83188085264202
H          -3.15685557638282   -0.00856562467398   -1.14644480129014
H          -2.18183479348518    1.17182985230396   -1.38551644801183
O          -0.84159477388021    1.91674504396659   -0.41045398790864
H          -0.88669630915555    1.12555893006792    0.15916431253122
H          -0.10598208672471    1.75440369847088   -1.01704428447106
O           0.63839019695268    1.85880840115057    2.09104982596146
H           0.20424965854138    2.49291525280074    1.50627991391451
H           0.03297077746096    1.09118594992753    2.10025888569843
O          -0.46074961525678   -1.11958668406195   -1.92163485823642
H           0.65359024226195   -0.00841232083088   -1.88589911200010
H          -0.67541382360752   -1.69678107250064   -1.16683042551686
H          -1.28969797504573   -0.62374874719227   -2.09681912297765
N           2.22811474160176    0.32480851824085    0.60781130382431
H           1.75400460821409   -0.63035621064633    0.77401692297669
H           2.03881315421321    0.56523773838598   -0.39054274262435
H           1.73870506404282    1.02293195191207    1.23386442281962
H           3.22187901271319    0.27350487633263    0.80127523038667
