    26
        -50.46286141  Gyration_radius:  2.61337670825 Dipole_moment: 3.447
 S           1.27805069201137    0.42266415227294   -2.15572480355217
O           2.42581944870182   -0.33452179709877   -1.68890037523630
O           0.01899092050364   -0.23719621778335   -1.74885092592728
O           1.25987471497737    1.81276161778207   -1.81085490746536
O           1.31424320384156    0.31450389929422   -3.74179739543577
H           1.59756152909263   -0.58321328322232   -3.88709523158510
O          -1.56967434711316   -1.03547532131709    1.99151358069641
H          -1.84212405928427   -1.73365980561344    2.58747138689837
O           0.45259346885557    0.87124339246548    2.03636405863757
H           1.19876144268459    0.35033112484805    1.67825689788144
H          -0.22449036789103    0.22443665136209    2.29475493467646
O          -3.22332991477980    0.64129681702953    0.62720793892991
H          -3.60954373150125    0.08509939747177   -0.05171354975534
H          -2.72500492614901    0.04274805676529    1.22098699865981
O           2.32897619961281   -0.71309859859966    0.86518940206894
H           2.39039589702829   -0.54368385016672   -0.11317531014703
H           3.23272716052332   -0.70950394948401    1.18441666455781
O          -0.00152733719465   -2.06650625538279    0.18688407952960
H          -0.05408907768144   -1.50340958847735   -0.61341617222240
H           0.88511366711994   -1.89519038269225    0.53662585077555
H          -1.02138685550785   -1.47359563347553    1.27636229735177
N          -0.84116847259408    1.63872313728126   -0.13596174077791
H          -0.55782063898801    0.88685505569593   -0.82539908140486
H          -0.58729047190263    2.52960242278042   -0.55408536595772
H          -1.85200985375238    1.53448547625739    0.09148608076610
H          -0.27364827060645    1.47430347199836    0.74945466804078
