    26
        -50.46286142  Gyration_radius:  2.61349129434 Dipole_moment: 3.449
 S           1.64617448582514    1.69206265601947    0.94220277649456
O           1.68402217935017    0.52930855005372    0.02966343347134
O           0.94176894692219    2.80241765117400    0.32605703379497
O           1.19134733963767    1.30416413285546    2.24389487771709
O           3.15705675481147    2.16922795077858    1.07621989655101
H           3.29863436609244    2.65557478235485    0.26955819597076
O          -1.34730637663209   -1.80087148894285   -1.56424476056876
H          -1.76996098245067   -2.07541601199941   -2.37841172808910
O           0.27080772862246   -3.33461267948864   -0.00301280380146
H          -0.38212966908841   -2.90242772743928   -0.59116990543678
H           1.08154466924291   -3.40730085792989   -0.50988403693890
O          -2.15361998756952   -0.28848434652223    0.62438032606805
H          -1.97819550272521    0.61484908744103    0.29340583320306
H          -2.14349112308083   -0.86553244411554   -0.15694770555588
O          -1.42825133026582    2.11015335069737   -0.43536929459982
H          -1.99298875056789    2.87723023200933   -0.32892269364141
H          -0.52972878233021    2.39335475924048   -0.11578443968408
O           0.01833783366445    0.36379100198640   -2.04202314591063
H          -0.58663084192579    1.07281929141371   -1.77922349859341
H           0.74281861720248    0.41343450026008   -1.38402036273299
H          -0.78222969336797   -1.00611882520732   -1.79452482753675
N           0.21637015487288   -1.08611195995469    1.47801404089776
H           0.86308864414710   -0.48501527004306    0.89383043349020
H           0.30107666501996   -2.07867123448717    1.17459090780681
H           0.45675520709073   -0.91495096773075    2.45055471294512
H          -0.77527055250276   -0.75287412241640    1.28116675466794
