    26
        -50.46286096  Gyration_radius:  2.61334132843 Dipole_moment: 3.458
 S           1.09812378256205   -2.26357768187351   -0.36318858410008
O          -0.12668957985332   -2.83394389255185   -0.89516098425467
O           1.27895662528277   -0.87760096172537   -0.84565688908436
O           1.25787024186626   -2.33400435626408    1.05841708461984
O           2.27909979296157   -3.09538548978237   -1.02769658728171
H           1.97144437633279   -3.22671621277855   -1.91953045156697
O          -0.99636863077825    2.53796193098639   -0.27005913247793
H          -1.52188429719408    3.20513947833413   -0.71229262000331
O          -2.17303948719832   -1.35874349713018   -0.33636003261464
H          -1.39529875888457   -1.94891671432375   -0.52724620001846
H          -2.91850505059291   -1.94812500124677   -0.21149957257100
O           1.48454499253599    2.89059365241640    0.79296269955570
H           0.56665963664583    2.89796389226117    0.45195588736615
H           2.05568477338102    2.96437716319888    0.02624551340364
O          -1.56959051013404    0.51224806777509    1.54480693344630
H          -1.86061627004560   -0.19663579730908    0.93731977722164
H          -1.59261180111501    1.33365892788831    1.02679477174514
O          -0.76791714935939    0.49051551874919   -1.86225766370975
H          -0.87437917426497    1.79334496282785   -0.92933098467336
H           0.05345894872450    0.01269965391310   -1.62285006252696
H          -1.47708838581879   -0.10047965272115   -1.56957626082891
N           1.06469132817379    0.31923250671590    1.47444823525907
H           1.21745793226537   -0.13195846234941    0.52902127914747
H           1.51859342487742   -0.27772315865137    2.16040620609201
H           1.41391184737342    1.29995296765900    1.44873572157151
H           0.01349138227156    0.33612215598524    1.64159191628466
