    26
        -50.46603979  Gyration_radius:  2.42529836631 Dipole_moment: 5.950
 S           0.29258438977514   -1.77650245653440    0.98269666963371
O          -0.32538510073160   -2.74535973570592    0.11998100720489
O           1.45459001428737   -1.11100467121707    0.37929237684933
O          -0.60775874764536   -0.77123966196066    1.51766417046273
O           0.85218486603956   -2.58915327893501    2.22312909855338
H           0.78344496117466   -3.47479879621183    1.88461016995994
O           0.37504303249042    1.85679196528798   -1.65691816221138
H           0.40605320789161    2.41647007779843   -2.43283490102000
O          -1.58353248962542   -1.46144914504766   -1.90643708864846
H          -1.28463304793478   -2.07357729468439   -1.21092206273844
H          -2.02185228073925   -0.72571213383281   -1.45164876111593
O          -1.87734658697084    0.82922129205091   -0.25978382716699
H          -1.17092595708748    1.23651967504459   -0.78254577618050
H          -1.45972535037348    0.18772379820059    0.34332954883204
O          -0.83473770216861    1.77374629430427    2.26579582764930
H          -1.52535812924162    1.95224519914559    1.61217962464206
H          -0.87832120266701    0.80991956083453    2.39513583058447
O           0.89968612087787   -0.58101429894951   -2.23500565636777
H          -0.00274054137637   -0.97137895613675   -2.32885058537754
H           0.60530937542314    0.91946891893671   -1.97017006252015
H           1.23499178401419   -0.92645315943423   -1.38992794242067
N           1.35355870162203    1.46308030496871    0.79111904443366
H           0.54282280486738    1.67401875649604    1.44687300830867
H           1.10407077967536    1.81377370953851   -0.16092823518017
H           2.22036128019450    1.87199016344311    1.12271495277310
H           1.44761582822968    0.40267388260092    0.70145174105653
