    26
        -50.45490164  Gyration_radius:  2.54701217471 Dipole_moment: 5.604
 S           0.33525580749929   -2.13746883259245    0.94730371555223
O          -0.67522024938038   -1.10241387767983    0.89016896309530
O           0.44765687194133   -2.94885014766688   -0.23715921616095
O           1.62116189355735   -1.57902005923514    1.38741292250545
O          -0.11537029920619   -3.13186145216479    2.11167082481196
H           0.20061438666863   -3.96955920537866    1.78797212768627
O           1.32165373976699    1.22208795979056   -1.39726285690155
H           2.00933533409394    1.31434215078100   -2.05755224176188
O          -2.36604952809840    0.12076871242491   -2.01761402970419
H          -2.62663029967915    0.39241945630528   -2.89893220331267
H          -2.08303511055125    0.93659224589827   -1.55044730880722
O          -1.24161145795243    2.26892293432919   -0.81196602566995
H          -0.34132191809561    2.07152112909031   -1.10703221673528
H          -1.26848049399292    2.02598699006029    0.12646982818584
O          -1.00256304484629    1.27823046032363    1.79576232061814
H          -1.68301080517956    1.28479830429912    2.46986472931225
H          -0.97973462057162    0.34861493868188    1.43969798471996
O           0.13134942735104   -0.95454629481100   -1.98963800277970
H           0.24596724055673   -1.72075261799896   -1.39638175151611
H          -0.82363527819985   -0.73147527830204   -1.96061990035265
H           0.85638667992767    0.34091176630417   -1.61499707910881
N           1.62572936763818    0.96300473813453    1.23205865347871
H           1.66182495971154   -0.12343261071956    1.34520297844810
H           1.60913277291852    1.14193649968111    0.19495513606385
H           0.72370421550027    1.28030108669601    1.62889280638826
H           2.41689040862711    1.40894100375197    1.68216985195166
