    26
        -50.46282798  Gyration_radius:  2.50838431729 Dipole_moment: 5.071
 S           0.12972545668088   -2.09782504185838    0.27233587969798
O           0.56792442140581   -2.35701052418195   -1.07898639292357
O           1.24375365292362   -1.78812350832668    1.16829077688643
O          -0.91015355575048   -1.08785717885074    0.37278132287172
O          -0.51064812077268   -3.44803940550615    0.79736906674946
H           0.04998739153968   -4.08368118664351    0.36590264724413
O           0.88184047033079    1.68555888605951   -1.22702394456565
H           1.31765596356842    2.28651182213698   -1.83216014445467
O          -2.50010889391571   -0.41339175464932   -1.69242765154025
H          -2.85580347078858    0.40858667609287   -1.34488856264560
H          -2.04236576755484   -0.83751099277634   -0.94206604187313
O          -1.34271929784732    1.56919832745929    0.46436181225981
H          -0.70188597399229    1.83769939856495   -0.21088385359935
H          -1.28493486974093    0.59506573515143    0.48603101617669
O          -0.00154247782988    1.82557705652281    2.70871581812529
H          -0.62704570694368    1.88562359372871    1.93885597914433
H          -0.40613536200040    1.21536872268537    3.32776353984722
O           0.04422639413567   -0.27609636308906   -2.63103026307205
H           0.56253723311509    0.90557775730531   -1.79749161467348
H           0.32393638952382   -1.09475067774378   -2.16982372872943
H          -0.93030280880364   -0.28199202317071   -2.54935761945765
N           1.82020932263999    0.72023338640514    1.11449741835129
H           1.20456156848001    1.18481799547796    1.83852194992507
H           1.60964688942493   -0.33577015882160    1.13649496172725
H           1.55585088833931    1.09703367946894    0.17474622021843
H           2.80179029384193    0.88519576856557    1.30947139830116
