    26
        -50.46911888  Gyration_radius:  2.45474893295 Dipole_moment: 4.000
 S          -0.06850336834803   -2.06436669953038   -0.86575983977982
O          -0.87796819633564   -1.65924660697355    0.27537697491677
O          -0.73728470785586   -1.95518699689060   -2.12962677896889
O           1.23108563374601   -1.38356744347932   -0.82584476461187
O           0.25052509986877   -3.60968221730165   -0.65813862498207
H           0.06239327313770   -3.97261461368668   -1.51793770479372
O           1.16266935840433    2.43287503946883    0.06249154268431
H           1.60761449561830    3.22499719408916   -0.23937320566622
O          -2.06432067976452    0.28377346488450   -1.05196750698405
H          -2.47340928269952   -0.12718767352333   -1.81726588756180
H          -1.71466919682306   -0.46704918329709   -0.52516954402090
O          -0.57621595678263   -0.23326939865903    2.52764108363763
H          -0.86770147988115   -0.91564195022959    1.89633852604275
H          -1.01210903060995    0.59506145453506    2.21635737541741
O          -1.39960651813136    1.91586385331781    1.16806552018013
H          -1.83740144564057    1.51023298515467    0.40785313418625
H          -0.56437232061886    2.27518154100807    0.83488480651922
O           0.42808838367641    0.94870838191040   -1.92605403261650
H           0.81284838009858    0.07240274208070   -1.75200655449971
H          -0.53111874731538    0.82849459264296   -1.78526437189798
H           0.89725790678459    1.92413153120021   -0.76235018950890
N           1.68475815928936    0.07804528781995    1.30675729038662
H           1.56305085559094   -0.57133203498655    0.47615524066926
H           1.66973702191103    1.05241350299653    0.94724604766746
H           0.80839563541751   -0.05806531084136    1.93726933526339
H           2.54625673723776   -0.12497145171665    1.80032213832672
