    26
        -50.45156383  Gyration_radius:  2.67112009547 Dipole_moment: 4.840
 S           0.89262084112374   -0.31234003532630   -0.01238517417673
O           1.09594678274465    0.21682713623428   -1.42866982957172
O           0.44344907178335   -1.68251864767933   -0.06330137367698
O           2.07270815174356   -0.09269666230103    0.77640151465242
O          -0.23613686872461    0.58442840485727    0.51655951465830
O           0.78427841965713   -2.06751982128908    2.56720706058700
H           1.72780989694288   -1.90319407845898    2.64363739811708
H           0.60580177941717   -2.13655645515007    1.61218731842372
O          -2.48623192982445   -0.47078616346082   -2.99829501043301
H          -2.71600504786662   -0.25327747778006   -3.90316182287404
H          -2.26799395319465    0.38506282233106   -2.54376224484149
O           2.14969696338742    1.30284756376167    3.05620386452619
H           2.45099672795473    2.19393630455213    2.87370231294253
H           2.27727628711300    0.79341708686373    2.23132872393933
O          -0.31895449823182    0.30142711041145    2.97204578839708
H          -0.06561177799164   -0.65266004823459    3.02121936542763
H           0.49520500387620    0.78742927060408    3.23224079341945
H          -0.34547480685340    0.48967547170903    1.58721486338670
O          -0.10548331391978   -1.55825528833686   -2.69352724262208
H          -0.12406577333905   -2.09387496249099   -1.88688211216925
H          -1.03549380446036   -1.23917535743784   -2.84183804799093
H           0.62587949756050   -0.46825142206993   -2.06767216565647
N          -1.61803843593552    1.77750806412752   -1.81009741279147
H          -2.22822440629643    2.54836710630061   -1.56713751204359
H          -0.83193440603544    2.15164109788756   -2.32850438527153
H          -1.24202042064937    1.39853897032846   -0.94471418432389
