    26
        -50.46253673  Gyration_radius:  2.45987944616 Dipole_moment: 4.991
 S          -2.01272675268277    0.16888171596845    0.45012625652160
O          -2.55561712592048    0.66799486000699   -0.78567919312568
O          -1.06269470493472   -0.92151501841248    0.29886356048899
O          -1.46460129112560    1.21358354207866    1.31265285231757
O          -3.23734828460381   -0.46067070519795    1.24934310553170
H          -3.94690842592739    0.13041350922010    1.01973098800188
O           2.01609750270996    1.25018386014357   -0.35618607404316
H           2.61649349053803    1.91768410951269   -0.68993590627794
O           1.30766388377380   -1.44000746331596   -0.87541110519174
H           0.41333561347156   -1.27906486609066   -0.51935532020985
H           1.78066076477074   -0.60318951329907   -0.76799494804294
O           0.03183683615467   -0.71303697009822   -3.18730460433065
H          -0.85096676692444   -1.06932584373324   -3.06862736992020
H           0.59676343435121   -1.15401269827421   -2.52271998375042
O           0.75286210226829   -1.98869868251171    1.92494529488600
H          -0.10849675094831   -1.83447653732379    1.48892384459673
H           1.32407480585081   -2.30157500635303    1.21196481544291
O          -0.18545000046731    1.52188708963716   -1.67116085638828
H          -0.08164785248363    0.85696177423786   -2.38588347385816
H          -1.07303264047917    1.35383340359232   -1.30696693295360
H           1.14504333846046    1.40353856797404   -0.83700519393125
N           0.94222910569865    0.66331325621305    2.02830446556398
H          -0.07959088300347    0.91996854351771    1.79366788116753
H           0.98087936925376   -0.39011824948783    2.11580637322219
H           1.50611069341687    0.96169952282574    1.20184634142799
H           1.24503053880079    1.12574778917031    2.87805518284703
