    26
        -50.45901795  Gyration_radius:  2.63384268715 Dipole_moment: 2.661
 S           1.83353199785069   -1.69838960214201    0.31064599985319
O           0.96347793250610   -1.31189945747687   -0.80578657856620
O           3.08115654190489   -0.97906434458097    0.32646779125857
O           1.09805040967964   -1.65455963494068    1.56615000665900
O           2.19915658902268   -3.23035889938318    0.07666768843209
H           3.03783025219052   -3.18794526257574   -0.37308614000004
O          -0.34651249316238    1.69226598179582    1.75891679197999
H           0.08995146552330    1.78911776086324    2.60653589638196
O          -0.49367167844922    2.85561335461014   -1.01002490348563
H          -0.83365132365256    2.95338468498693   -0.11554954822786
H           0.35382630750546    2.39538712703055   -0.91516609160247
O          -2.05852305756096    1.05683885646192   -2.26877110944817
H          -1.86680972875503    1.12243996943361   -3.20496640441215
H          -1.52627232796429    1.75611471443302   -1.83004316174954
O          -1.69386822154991   -1.33061302558685   -1.08316712061170
H          -1.90178878678422   -0.50021764776172   -1.56384092816213
H          -0.72871055619485   -1.45750460061262   -1.17579794772452
O           1.47998588209422    1.13056516993923   -0.10707806944893
H           2.37082083662890    0.88489819342377    0.17856652286164
H           1.17372297237771    0.29303571111589   -0.52363098981774
H           0.37021768469864    1.50174639122717    1.10639619979002
N          -1.35183018984808   -0.81313509099997    1.42959559948973
H          -1.64308906335869   -1.01141873862799    0.40559451027120
H          -1.21820700992778    0.20594749569989    1.58359277170098
H          -2.00649462385480   -1.21201972012789    2.09227025865774
H          -0.38229982090332   -1.25022937620824    1.53550894592947
