    26
        -50.46911892  Gyration_radius:  2.45473941971 Dipole_moment: 4.003
 S           1.18690295526269   -1.82493009570469   -0.52499895157792
O           2.13423302400191   -2.01499245460426    0.53466224721322
O          -0.20494127137127   -1.88330108242484   -0.09981158205485
O           1.42006196334707   -0.60883676152467   -1.31296800339286
O           1.39410532662021   -3.03682346537739   -1.53559744131350
H           2.20706085472180   -3.42290851049783   -1.22473980988308
O          -0.17197192287341    2.69032651651951    0.07881118927711
H           0.09232613391081    3.60618982159595    0.16774034238379
O          -1.89508044400860    0.98777904561158    1.55794230435482
H          -1.24472503084560    0.44228938420379    2.02008007965983
H          -1.39586592721546    1.70967770453593    1.14883482784077
O          -2.48508153035843   -0.54379281833643   -0.55219923074229
H          -1.85497090668419   -1.26613910770982   -0.37817220237021
H          -2.49256172056171   -0.01535804433167    0.28066546395808
O           0.28285767135165   -0.70699058885532    2.20740634496598
H           0.04731037669894   -1.21377418263606    1.40046494315716
H           0.94892460920338   -1.24321052485575    2.64422502557648
O           1.73941374874676    1.08652518262274    0.76538715746672
H           1.33395914075043    0.52058276440614    1.45073829628617
H           1.86809807350062    0.49507554187407    0.00393091058151
H           0.61222203529904    2.13780975403471    0.37769755272645
N          -0.70794080048073    0.83754583470321   -1.83056283671185
H          -1.54000717664795    0.28471997287262   -1.39957247497841
H          -0.85989034342809    1.05666123028829   -2.80826742955464
H          -0.56822855078967    1.69602946498816   -1.26279568411294
H           0.15378972189378    0.22984542875260   -1.70890103871355
