    26
        -50.45602531  Gyration_radius:  2.61286773927 Dipole_moment: 5.371
 S           0.91830290469722   -2.38480492096621    0.44402415173116
O          -0.36734086292823   -2.86128050931941    0.92981449681436
O           0.82309322119016   -1.52917504785111   -0.71077121595119
O           1.69742031759565   -1.75138507503527    1.51444845299555
O           1.73287873006465   -3.67720036169425    0.00781327508501
H           1.63651838605089   -4.26347715030070    0.75305021290971
O           1.36072075121176    1.61103263109460   -1.20432921654891
H           2.23359613133731    1.31941594502835   -1.47062619002428
O          -2.27838259330610    0.95410396492942   -0.85233711844433
H          -1.84657375904649    1.74131811168260   -0.48200062932152
H          -2.23158756143541    0.27916079836239   -0.15930083147264
O          -0.65208218538678    3.07704236233229    0.00867101851683
H           0.11143426959161    2.77630898586537   -0.50782395528734
H          -0.97123907720806    3.87423004185289   -0.41668218805782
O          -1.65871401744241   -0.67308056025335    1.31187669801371
H          -2.25941625109774   -0.84427793398585    2.03937202144325
H          -1.22126532307789   -1.54706880808821    1.10990630138371
O          -0.29356486068137    0.14370253368019   -2.48583462496111
H           0.01929604478217   -0.65469561245515   -2.02641534771121
H          -1.14207591264087    0.38194538248341   -2.05222603828971
H           0.71768703655688    1.07809768738338   -1.79032969685037
N           0.73967169450278    0.61482055110507    1.21991292974032
H          -0.26586557167917    0.35411246734526    1.24507302597393
H           1.26290705503699   -0.30848144978763    1.39778346042501
H           0.99277651501114    0.96751651191232    0.25729265692530
H           0.94180493830781    1.32211945468491    1.91963835095872
