    26
        -50.45901776  Gyration_radius:  2.63384153429 Dipole_moment: 2.660
 S           0.76702630354848   -2.33006732395748   -0.57047305476365
O          -0.45003831272636   -1.75933322181411    0.01743246853476
O           0.69021381281932   -2.46549444893659   -2.00229513871513
O           1.94318046543384   -1.61516632270811   -0.09633934429143
O           0.89177275709037   -3.80524128479278    0.01568719981291
H           0.49080743021049   -4.34290575890707   -0.66077637172853
O           1.32762588800946    1.90647322886331   -0.82034550258050
H           2.15591260974678    1.90962176134305   -1.30229303528895
O          -2.54448280693234    1.54488243530425    1.28323700666985
H          -2.24186138699712    1.88792157716106    0.41409839299762
H          -3.46311940066155    1.29920644055077    1.16883969315918
O          -1.62990930049287    2.34349378517962   -1.12395622791750
H          -1.39633757807659    1.51452321791397   -1.56817871094300
H          -0.79543412312217    2.79843549650681   -0.97579839854900
O          -0.85416516395911   -0.32085682301717    2.23248837422738
H          -1.51336752918159    0.35922868124215    1.97413918740180
H          -0.86739936605842   -0.98972816587410    1.51927377291501
O          -0.27617001955766    0.03367058177181   -1.84691572168188
H          -0.51526173581163   -0.54441728908962   -1.08712680594057
H           0.76963277425358    1.21177266252996   -1.24686389905769
H           0.10203641852212   -0.60984744323739   -2.46207758940859
N           1.49925940169948    0.41932703440226    1.45012090032052
H           1.74815498719310   -0.45812614057569    0.89291063799976
H           2.19835371549412    0.61315619072627    2.15760178200070
H           1.43387891934748    1.18556992695120    0.75102933605644
H           0.52969123026036    0.21390119246183    1.88658102879131
