    26
        -50.45901798  Gyration_radius:  2.63380293519 Dipole_moment: 2.661
 S           0.82354350154886   -2.37504327969712   -0.15623876473686
O           1.69861554341602   -2.59711584120762    0.96586139689386
O          -0.44677829643750   -1.74659055827306    0.22327163865313
O           1.43579356815506   -1.65435374888706   -1.26303619708077
O           0.45162583878198   -3.81318027412289   -0.72951656030696
H           0.56195004088498   -4.38375167060318    0.02533231716696
O           1.64133582010966    1.82765899033816   -0.19420267930184
H           2.58111132580878    1.78577225873323   -0.37700258788192
O          -2.12602377363731   -0.16559961713898   -1.12547232281344
H          -2.41432421763756    0.50939563235143   -0.47342953805111
H          -1.70419995643042   -0.87707686645559   -0.60391629128423
O          -0.35831519431257    2.29916398506897    2.00052768806875
H           0.19568481524876    2.74782793595498    1.35480718401793
H           0.06430225689767    1.44014332735190    2.15055273267746
O          -2.67046675100786    1.66826449364310    0.76620639899092
H          -3.29956498988369    1.43229750502704    1.44886534268406
H          -1.85330874345323    1.95095167476383    1.23208674579274
O           1.00704670707629   -0.07510178940211    1.56968944047870
H           1.46365286257694    1.11845996757509    0.47007714043805
H           0.29649544872215   -0.60082249134211    1.13673466841598
H           1.66028021512683   -0.76217991293226    1.76139572642774
N           0.19802274941714    0.47972243043460   -2.06406399518477
H           0.26935483058175    0.70310782192279   -3.04987348710870
H           0.70303839505990   -0.43494435058473   -1.83892871677260
H           0.65010139154402    1.20271191687399   -1.46993821356178
H          -0.82897336819577    0.32028247060012   -1.75978906663840
