    26
        -50.45901803  Gyration_radius:  2.63410676535 Dipole_moment: 2.663
 S          -0.84514333002071   -2.25225007792858   -0.74865035176470
O          -1.27335623305352   -0.86556067889057   -0.96400546119881
O           0.05584264244695   -2.72704552133012   -1.76707065929447
O          -0.36050772453235   -2.42839787988695    0.61266476240114
O          -2.15990959097696   -3.14351625088159   -0.85864297686468
H          -2.14992323575484   -3.43466810930143   -1.76563794891589
O           2.20513455599371    0.12643057889818    1.09294506798245
H           2.80817971527093   -0.57746481604891    1.33646381536018
O          -0.70995035681580    3.14965357433135   -0.28177761912583
H          -1.07212511628454    3.57281563799131   -1.06103130499129
H           0.21552736386691    2.90851065895199   -0.50560789114769
O           1.78049214859382    2.32886136733327   -0.90757229717427
H           2.22365032950190    2.11348947995076   -0.08145604355453
H           1.63819507743671    1.47998083489782   -1.35281791360946
O          -2.04302470684836    1.04616152736095    0.73623493988599
H          -1.63156764934603    1.86875956838124    0.39265663698001
H          -1.97061890355938    0.39021481847072    0.01455204937242
O           1.23859911955530   -0.35404487890400   -1.35021608003429
H           1.89031451607495   -0.09055303477270    0.18210541967075
H           1.38071022440535   -1.22832663192472   -1.73883132481289
H           0.25991149698125   -0.34680536327364   -1.24604227386816
N          -0.29083242348410   -0.29590030003015    2.08770354899725
H          -0.45018181235255   -0.42521920965153    3.08004817946298
H           0.67035050971435    0.04742102752480    1.89204787711141
H          -0.37978304008926   -1.22093244401589    1.55973708542190
H          -1.02998357672337    0.35838611278900    1.64220075370221
