    26
        -50.45156380  Gyration_radius:  2.6710207088 Dipole_moment: 4.835
 S          -0.59921981682690   -0.64835838800645   -0.34146073969562
O          -1.77621756341338    0.01285686596824    0.36904076442678
O          -0.99445086999673   -1.10149018640618   -1.64591700523604
O           0.39015163295845    0.51588008216650   -0.49535634211216
O          -0.02681318920776   -1.66585932054073    0.50638277960118
O           0.15065939763663   -0.33949424466209   -3.93926690870992
H          -0.37651706312647   -0.68442316774813   -3.19142887511854
H          -0.36808448692388    0.36183807693808   -4.33571325478025
O          -0.03514502519062    1.20679172092412    3.73278804416929
H          -0.07165241510546    1.78601678804451    2.92666430390959
H          -0.49967354753298    1.67268633171067    4.42996113687300
O           1.51454469072536   -2.66203767350515   -1.44691151024658
H           0.84115065636776   -2.92727256058706   -2.07876324885967
H           1.03728175668503   -2.46243450614776   -0.62166420852164
O          -1.36104687867980   -0.81253564840109    2.68006008203174
H          -0.71463645866623   -1.43742827555844    2.32013048506986
H          -0.84090482472264   -0.11181023564775    3.15662333410288
H          -1.70938916620899   -0.27359043867107    1.37502568312686
O           2.10588422281770   -0.17842376607984   -2.13542186089720
H           2.14581337646609   -1.14021258269868   -1.91129521333475
H           1.58050503643057   -0.13919648233852   -2.96562941623765
H           1.18631348115185    0.26912031092354   -1.18318630017710
N          -0.35097193103536    2.60638822695473    1.46077692709681
H          -1.33911384404673    2.71198385853269    1.26324476814553
H           0.01244390331301    1.94358664461640    0.78074345548614
H           0.09908892620075    3.49741855016500    1.29057311990422
