    26
        -50.45602553  Gyration_radius:  2.61272021687 Dipole_moment: 5.382
 S           0.24555242366902   -2.13421673791909    1.45355918071045
O           1.03604867283594   -1.50303836083512    0.42810644159410
O           0.18310136462904   -1.37921718206865    2.69526161268041
O          -1.09498979164045   -2.47303655253577    0.96120250838109
O           0.94859388936293   -3.51395948199282    1.80868830989514
H           0.47099104560028   -3.81655035392001    2.57608763149770
O           0.32834782481855   -0.13215436875617   -2.40321721428997
H           0.52361928642490   -0.99859519231663   -2.76223490427552
O          -0.94758919359503    2.28277645799351   -1.94389265168573
H          -0.77229345661697    3.02274009672687   -2.52699431599199
H          -0.49882526740717    1.51519217431065   -2.33068836455747
O           0.85413873494447    2.46154924564068    0.20435525856256
H           0.16802739200551    2.53249230193612   -0.47941029840331
H           0.43753163499638    1.99990033897223    0.94689081701667
O          -0.69367074121018    0.90307540655101    1.90477073901133
H          -0.28434903332562    0.05868644049842    2.24427606472685
H          -1.20464342597295    1.25698591503388    2.63486734615825
O           2.29774534949474    0.46453663498586   -0.88782091706546
H           2.09134666349427   -0.27199556108322   -0.28668182816383
H           1.16256379499138    0.12600795933216   -1.87563253832087
H           1.96220546462976    1.27196773879244   -0.44037285021361
N          -1.46320726927494   -0.32568001992354   -0.40125312410853
H          -1.22252700928980    0.34934267775614    0.35117185539737
H          -0.73796089350592   -0.27934033936539   -1.16745883555843
H          -1.40399125078456   -1.29007534976540    0.07223445112038
H          -2.38576619927390   -0.12739387805283   -0.77581437411759
