    26
        -50.45602548  Gyration_radius:  2.61182530996 Dipole_moment: 5.381
 S          -0.49563965160957   -1.93228039557652    1.65430282614144
O          -1.63197676894401   -1.23177092995972    2.23206365230071
O          -0.88198643575385   -2.69209222199801    0.45942414632924
O           0.63840762108652   -1.08379121142222    1.39151050715097
O          -0.04087090301387   -3.00580376672537    2.73351934339500
H          -0.85311511304446   -3.44773472670002    2.96463036558231
O           2.05337645001487   -0.02509992466802   -1.29106588541395
H           2.62394325886351   -0.78372005564027   -1.16128086204122
O          -0.15441519284912    2.60627276990681    0.12738037541377
H          -0.07047070846373    2.44654338639232   -0.82693896364644
H          -0.87715030916701    2.03484785216174    0.42618517664104
O          -2.06633805158618    0.63019828661291    0.51567547842785
H          -3.01004390332565    0.79795205321534    0.54083913928164
H          -1.88909222209357   -0.03110353930558    1.24185849123459
O           0.41192762716825    1.84060879356569   -2.51618377558778
H           1.14388200769620    1.26170371963341   -2.25301730011039
H           0.80676661704187    2.59600721558663   -2.95415823823696
O           1.98719096001436    1.19400028630237    0.95484732779477
H           2.11095800924635    0.49635317723788   -0.41633219793583
H           1.26859315382858    1.84600662652437    0.80248657442993
H           1.56165217845790    0.43083029354657    1.38238673118363
N          -0.52880012356518   -0.78782854111703   -1.22965046093448
H          -1.09608659011152   -0.06947632654055   -0.73821237545821
H          -0.64831138916628   -1.67807015729381   -0.63732122072380
H          -0.85193572192037   -0.90472749422567   -2.18499713369372
H           0.48953520119364   -0.50782516951822   -1.21795174152283
