    26
        -50.45602550  Gyration_radius:  2.61186594438 Dipole_moment: 5.382
 S           0.02155825386058    0.99390442727053   -2.39336541674821
O          -1.43882945337121    1.04149722647928   -2.25421515559127
O           0.64129618566943    2.23055896616606   -1.94346086158900
O           0.56815398379789   -0.18817906900974   -1.77777443829382
O           0.31455767429129    0.89214444501693   -3.95150081835465
H           0.05496783616047    1.74699702679442   -4.28363491909240
O          -0.57212472628220   -2.33509266196573    0.32284874399809
H          -0.80124665069615   -2.82654175262245   -0.46701369906000
O           0.33000291967604    2.11153802069337    0.60419136688428
H           0.24646282072065    3.01880309396774    0.90289134950508
H           0.53573553870102    2.16504247262285   -0.37094060333997
O          -0.76068631202636   -1.15706335480054    2.82339650791218
H          -0.56436639951714   -1.67875406524000    3.60289729594917
H          -0.74486679552942   -1.76921203569862    2.07161925729708
O           1.61882593316325    0.12080847372265    2.04880422685527
H           1.35391346455097    0.91242780758212    1.55756631097818
H           0.80344216669646   -0.22791249675128    2.44482352768826
O           1.87767416455149   -1.66088688499066    0.04280253728622
H           1.99387877770806   -1.03151705008912    0.78784790959847
H           0.42774930954759   -2.15352435284910    0.23534263437059
H           1.66202475018931   -1.11277451321413   -0.73139210338420
N          -1.53461430699157    0.17513247423752    0.16323866205140
H          -2.41291132996718    0.21519324095169    0.67094748241828
H          -0.84828533123115    0.84132368585016    0.56883139201717
H          -1.13966283364021   -0.80410607129601    0.18913906581799
H          -1.63264963002437    0.48019291715868   -0.86389023517036
