    26
        -50.45156367  Gyration_radius:  2.67114939243 Dipole_moment: 4.837
 S          -0.84017596861811    0.42705078839483   -0.07477106230145
O          -1.73584487353100    1.10726649495932    0.81875674891605
O           0.42459977089176    0.02363170616721    0.69690920689356
O          -1.40042303562047   -0.72920640206949   -0.73129168229526
O          -0.29331727049579    1.39736975623518   -1.11709166973298
O          -2.53808666769207   -1.65687088673456    1.51093740914546
H          -3.12652232167912   -0.92655285575741    1.71908063136741
H          -2.22137754774349   -1.48971091868580    0.60512404667801
O           2.20256396420373   -0.96935192413124   -3.10000252566979
H           2.49525481152648   -0.44170374040125   -2.31096368046944
H           2.73115638714964   -0.67336757632628   -3.84285977363429
O          -1.43387565994312    1.24474922597605    3.47202181940651
H          -1.65783258981947    1.29998027506901    2.52177961508067
H          -1.01994138573675    2.07783094521418    3.70160020916244
O          -0.28730549631931   -0.10742532190785   -3.09930180975469
H           0.62353661532817   -0.49990051312078   -3.17089208715921
H          -0.82061106920320   -0.74058762508232   -2.59678891473844
H          -0.24992755094932    0.86475544217222   -2.01896158525257
O          -0.30094307871363   -1.06985436513036    2.79293056479091
H           0.17921563738814   -0.48593343936661    1.61775272814241
H          -0.63068257705625   -0.28964056465499    3.29234025620880
H          -1.11738970275841   -1.51275560754992    2.45507961665495
N           2.76343430998136    0.62346169305641   -1.00997985104654
H           3.64445788831953    0.59413758811695   -0.51158932382165
H           2.03295445412318    0.34513056618901   -0.35977500153627
H           2.57708295699943    1.58749725936830   -1.26004389504860
