    26
        -50.46173006  Gyration_radius:  2.49813768955 Dipole_moment: 7.260
 S          -1.90985649640503   -1.17949202959143    0.74420066357149
O          -1.76665332586372   -0.51673168989525    2.04442329826141
O          -1.86112805034288   -0.18482475515787   -0.32878574247186
O          -0.99661828382218   -2.26773683901373    0.55339399546078
O          -3.37710272360827   -1.77180904306802    0.72526004242407
H          -3.89832152043449   -0.99021884406700    0.87465422930068
O           1.38015008555342    1.32415543119926   -1.71890095902521
H           1.86246410871284    1.58109217839886   -2.50522803105422
O           2.36124427930612    0.19557240245754    0.48784056534164
H           2.05966054656348    0.62688230861669   -0.34833162070011
H           3.31683461551280    0.26149834901563    0.50495676191688
O          -0.77085770091761    2.24603704948679   -0.27689477145266
H          -0.03879677050490    2.13239962557328   -0.90834587555422
H          -1.33469721662187    1.45306075262883   -0.40230707335583
O           1.39629578736631   -2.27953351438521   -0.65108422287371
H           0.56863455275675   -2.49610917770561   -0.18430220754684
H           1.81652041725652   -1.59401740190115   -0.11589590992466
O          -0.06639193686120   -0.70720923437244   -2.25684879109991
H           0.47821842714102   -1.42260408897791   -1.85806819478970
H          -0.82421213319326   -0.60031984371851   -1.64857039761214
H           0.79884528449325    0.53204017678540   -1.99669118848639
N           0.18422262084058    1.14045607390301    1.87886194952599
H          -0.59428106326373    0.40686213223221    2.02647743685535
H          -0.17460130622643    1.75219068179159    1.06992778093851
H           0.33571586428432    1.67618269492673    2.72619557739389
H           1.05471191827362    0.68217659483800    1.56406267495597
