    26
        -50.45602499  Gyration_radius:  2.61329819976 Dipole_moment: 5.371
 S           0.36244803185275   -2.44931728547043    0.77634414771836
O          -1.00970419187518   -2.57430698958385    1.24275812935553
O           0.49000243911297   -1.74948194461200   -0.47612248007857
O           1.22975030641207   -1.86336646144403    1.80523370872070
O           0.88744000817876   -3.93076593650237    0.54468940640691
H           0.64018118661647   -4.38358341181444    1.34622052683153
O           1.71371712228284    1.12195790875619   -1.30970776069076
H           2.51223971893981    0.62552698433233   -1.49323782288666
O          -1.99090511725169    1.29450351405764   -1.08759650688756
H          -1.41079461106820    2.01433244591772   -0.78989311479035
H          -2.11161547038439    0.72012039478872   -0.31716696345275
O           0.02841463851268    3.12035439313425   -0.39415597560996
H          -0.09892493783900    3.90534560332932   -0.92878807139330
H           0.72430010026985    2.60222799879322   -0.82716899478524
O          -1.80100451934495   -0.13032369022018    1.28887747817119
H          -2.44545757060915   -0.07409891189032    1.99660487129385
H          -1.55961281623907   -1.09606679095370    1.21769791281236
O          -0.17912923815493   -0.11807834617858   -2.49705749511549
H           0.98855310138600    0.66459933292678   -1.86278496746833
H          -0.06054195257939   -0.89876236305015   -1.92878426022318
H          -0.96897934034758    0.34719382251481   -2.14429683090136
N           0.82233167793265    0.59470093296190    1.17675822794409
H           1.12534849099674   -0.38869716925067    1.49158409979165
H           1.17420889328968    0.76030011822596    0.19501394741693
H          -0.21612188638229    0.56014056527680    1.17638306300145
H           1.15385594628123    1.32554529593360    1.79859571479993
