    26
        -50.46627158  Gyration_radius:  2.44592373196 Dipole_moment: 6.903
 S           0.02495226796907    1.14375089364009    1.62907825172087
O           0.69103534822917    2.37191272254514    1.30420697419293
O          -1.15973716731748    0.88166712088835    0.80380235572233
O           0.87751781425978   -0.03586529244171    1.64991704091635
O          -0.51646748953730    1.31988679901942    3.10992196799834
H          -0.32434586459187    2.24054753311932    3.24765338192808
O          -0.22151691575600   -1.16674241589673   -2.22046016652579
H           0.09502606756955   -1.65204515126226   -2.98264743484657
O          -1.10198344164002    1.54962499444547   -1.86251136270006
H          -0.92567735285839    0.65913648404206   -2.19325098657105
H          -1.23730641837448    1.45644502774667   -0.90586559466442
O           0.29907696163289   -2.58242018520210    1.75286717060681
H           0.55827181881678   -1.64281736613919    1.90244333018255
H           1.09339202320646   -3.01914310042127    1.43797192962941
O           1.48040051184099    2.27480396166873   -1.30423619250492
H           1.32636987795179    2.49897418120288   -0.37110501921579
H           0.59045690716843    2.24305920241360   -1.70302214877455
O           1.78604885794825   -0.30283123978566   -0.87569501159298
H           1.85328167356604    0.64880925853954   -1.14818924570622
H           1.56830324064250   -0.25929329791184    0.07222199291615
H           0.60440281167723   -0.83792560483788   -1.73265405948157
N          -1.49605572149344   -1.58261752191031    0.07255260042975
H          -0.86980765104318   -2.14953590504631    0.70248490474722
H          -2.45598606771131   -1.90817971492111    0.09626566606065
H          -1.43014236636915   -0.57089701593767    0.41985101310328
H          -1.10950972574688   -1.57830436772776   -0.90160135747892
