    26
        -50.46562313  Gyration_radius:  2.50099011663 Dipole_moment: 2.628
 S           1.86705305282260    0.40023297233173    0.61426362392154
O           1.68841101392249    1.54924235702881    1.49427514496161
O           1.46953648654972   -0.84588271781978    1.26807917205522
O           1.24139893322939    0.57337987457357   -0.66850826594374
O           3.43198374880457    0.28676566760580    0.37111829184149
H           3.78347893616359    0.42509574942569    1.24526607279561
O          -1.31180352143098    2.49270548676552   -1.45477589806305
H          -0.53803004005180    2.92800542321778   -1.81827573284469
O           0.93136320199141   -2.83494588625636   -0.36333799078715
H           1.14091944535777   -3.60323899234131    0.17104766512060
H           1.20930668295426   -2.05555523093701    0.17088478299568
O          -1.59954335946486   -2.12928950534407   -0.74772659581725
H          -2.11070868800582   -2.86216201413291   -1.09275957335509
H          -0.66167573000092   -2.43673415632899   -0.68890477388039
O          -1.18844964028196   -0.63342322907205    1.53245391942155
H          -1.50708030005259   -1.14288715214120    0.76818053658856
H          -0.22294948799551   -0.79292280523255    1.56644977082519
O          -0.84613852542086    0.05951512952162   -2.28529072087725
H          -1.27250863673487   -0.67986574592917   -1.82388825370250
H          -1.28238721292984    1.57325247285335   -1.83900640319132
H           0.03000350855692    0.13771560870948   -1.86831262692521
N          -0.86583500735596    1.94099763831755    1.09617125943775
H          -1.17084366255636    0.93847790557323    1.27270406184814
H           0.17877008077139    1.93231023571799    1.26550032998753
H          -1.06186863771671    2.19957500147314    0.08279065856565
H          -1.33240265116682    2.57963591243910    1.73160151504001
