    26
        -50.45490175  Gyration_radius:  2.54680929382 Dipole_moment: 5.606
 S          -2.05644535112054    0.52804002093421    1.03297760132602
O          -2.30399036138177    1.84112768253802    0.49589946144555
O          -1.50587554844096   -0.42660167537313    0.09414521574366
O          -1.26286821252858    0.55179743031229    2.26938318101530
O          -3.48548645002811   -0.04254894610244    1.45759089041985
H          -3.98284556242088    0.75691236250297    1.59863530812955
O           2.02084414680458    1.04641083987244    0.10797401698215
H           2.58011260614555    1.80996171018267    0.25493522894904
O          -0.05039006029018    0.26376837659227   -3.10032404067853
H           0.39680124845735    0.64169826061319   -3.85899151808042
H           0.59464852245025   -0.34097030429778   -2.67338755121729
O           1.79418168610252   -1.12805667422058   -1.68910833961307
H           1.24833310794493   -1.70151669238361   -1.12914547693723
H           2.05192049813009   -0.38347571721355   -1.12719650645864
O           0.11836656289892   -2.41462479262500    0.14858952120430
H          -0.35709332527802   -3.23394982434770    0.00678504714775
H          -0.55323841735237   -1.68706227847978    0.04240667370208
O          -0.08505035910056    1.97701786383528   -0.98931319780366
H           1.16649380073940    1.41509968696697   -0.30985487461873
H          -0.24789337259365    1.38587810482559   -1.75526072800775
H          -0.91234044393564    1.97969950957092   -0.47181173243802
N           0.99263607315591   -0.58423809455371    1.94004234134955
H           0.02638373252658   -0.11395420818558    2.13902701231421
H           1.50161958523657    0.07118571338067    1.29253882679357
H           1.50828664232297   -0.74869172005102    2.79703817178710
H           0.80288927153049   -1.46290662428862    1.42642546753581
