    26
        -50.46245841  Gyration_radius:  2.5306776446 Dipole_moment: 4.463
 S          -0.82388506347059    1.42322325800879   -1.53115480497423
O          -0.32602239757415    1.53375653609141   -2.88433348915223
O          -1.47050094077101    0.16387864169106   -1.24364195981283
O           0.22557665003213    1.71226065224479   -0.54256703624932
O          -1.91838979875221    2.55385878910431   -1.34381217809861
H          -1.52892018901544    3.32692057391683   -1.74220463975019
O          -0.02184851167320   -2.15948905731594    1.25218600803730
H          -0.40404775854855   -3.00794418229559    1.02709926024235
O           1.83189833108463   -0.53049117499829    2.50612023133776
H           1.97335189772212   -0.61110394627908    3.45040723129866
H           1.20927400282312   -1.23174464115929    2.25772271895162
O           0.40581096303123   -0.98107966658168   -2.99158354653302
H          -0.46770329541801   -1.35447502390560   -2.83932480792002
H           0.22482647288466   -0.02412028918199   -3.14245622134156
O          -0.13272021761611    1.46387432092136    2.12270468787491
H          -0.01301154581903    1.76479499112858    1.20560281061949
H           0.65038845185703    0.92404118652957    2.31675112328234
O          -1.87329713321262   -0.41351536806712    1.33292644833530
H          -1.40942073999993    0.33756828462766    1.76773065140466
H          -1.90118536074081   -0.18026430470079    0.38295989576048
H          -0.80936201170519   -1.51307085577870    1.34117174963072
N           1.33915422042112   -0.65355678419519   -0.53424869443297
H           2.33565231485361   -0.67615849772826   -0.33999569548851
H           0.82947172854273   -1.28884580418222    0.12815282654018
H           0.96759465593187    0.33375663244732   -0.42072154488320
H           1.10731529513520   -0.91207429033548   -1.53549104467387
