    26
        -50.46245836  Gyration_radius:  2.53076414152 Dipole_moment: 4.456
 S          -0.56916810226289   -2.12098211314353    0.47454224834947
O           0.20317201398339   -2.99469346275072    1.32982510871671
O          -1.17043684485804   -1.00350269874753    1.16490136585738
O           0.21507702345520   -1.66321591509914   -0.68208611511477
O          -1.75684351491080   -2.98452827389779   -0.12148222088818
H          -1.34785884072159   -3.80917174851852   -0.36785013679226
O          -0.13931829085725    2.46410873007128    0.37135389382712
H          -0.40063931197267    2.96391975559699    1.14506164007290
O          -0.69888275068120    0.13069423026539   -2.48236512165299
H           0.05942369687455    0.73659230061800   -2.46986436126715
H          -0.40331341529808   -0.65672673755987   -1.99395561920772
O           1.27125456485988    2.09335731415759   -1.98151986875866
H           1.20680252878572    2.74426429331213   -2.68178769615202
H           0.77088402093156    2.44498013420095   -1.22845904743019
O           1.12030628916009   -1.01953614023815    2.78926018030189
H           0.90835666444127   -1.88044588521927    2.35896911195315
H           0.26366482211264   -0.70072665499830    3.08969275110853
O          -2.08454108512786    0.99201778319133   -0.35767796338648
H          -0.97175779379900    1.94706033526232    0.07842880572912
H          -1.78197567962703    0.70154574048858   -1.24795271750682
H          -1.92111384964702    0.22630656066636    0.22928318890042
N           1.46773670246746    0.29455043337852    0.51555361828019
H           1.48016132170763   -0.13053084400385    1.48622469865119
H           1.00996455074920   -0.44400552542519   -0.09340062053267
H           0.87250645947674    1.15937308842048    0.50972608513057
H           2.39653881075882    0.50929530996645    0.16557881181113
