    26
        -50.46245844  Gyration_radius:  2.53047312569 Dipole_moment: 4.457
 S           1.63563085884540    0.49373088010208    1.45886189583133
O           1.92543574806072   -0.02743751458217    0.14304344557889
O           2.14080607249747    1.82936498796022    1.68724668495756
O           0.19857243752042    0.39999197987379    1.75575256161756
O           2.35629724955647   -0.46029512715831    2.49899522761008
H           2.33359401692611    0.02509037023827    3.31868954802514
O          -0.81784798665163   -0.76346064807987   -2.23089704510405
H          -0.38696802037757   -0.76123111372311   -3.08588321424174
O          -1.26870411333205   -1.82410571888013    1.31442942234795
H          -1.99393423646220   -1.41369342201960    0.81654275861569
H          -0.75909660385291   -1.08102171420031    1.68059529523510
O           1.62975659201229    2.61437010233662   -0.76104045079654
H           1.87513695985878    2.52398711902887    0.18921223574456
H           2.18848827972492    1.96617506312674   -1.20076519967992
O          -3.02691999263553   -0.65855635393662   -0.56600759306571
H          -2.39932948422530   -0.81085528658564   -1.28989091486315
H          -3.75049340516091   -1.27309411831208   -0.69639608788112
O           0.54879639088008   -2.18544779306087   -0.62039718878779
H           1.19087046720396   -1.50642468288047   -0.33013588418294
H          -0.07957292843949   -2.28148492493966    0.13082094708072
H          -0.27319340678526   -1.40084193712386   -1.64533864649836
N          -0.67537547736293    1.33071682793060   -0.52635924152431
H          -1.55877461475894    1.83062983716246   -0.49480277113821
H          -0.45759163798700    0.91429439889528    0.42481830443090
H          -0.72517173487195    0.55757524545701   -1.23489293612682
H           0.14958856981369    1.96202357337085   -0.73620115318734
