    26
        -50.45901937  Gyration_radius:  2.63392892729 Dipole_moment: 2.633
 S           0.38392066009787    2.48298253956378   -0.19968998517401
O          -0.91803405785518    2.22061886951443   -0.79499470049566
O           0.33149066567621    3.02961154611269    1.13158567806907
O           1.24070524546979    1.29532325877051   -0.29621076606959
O           1.06189464158910    3.59211147447782   -1.11907529845336
H           1.62059524842176    4.06851542130283   -0.51214119438880
O          -2.17737297119319   -0.78683042677843    0.84844979713192
H          -2.95909914811572   -0.28411066812649    1.08209678890746
O           1.18081785490703   -0.81342840239772   -1.93523916488848
H           1.39059711830399   -1.58314528068396   -1.36307483883709
H           1.42209824937976   -0.02107925801979   -1.41520420335240
O           1.62278796077842   -2.79803113596569   -0.17293363946664
H           2.52264612250507   -2.94475340819606    0.12064160068001
H           1.08537481727510   -2.67655461308800    0.64018387674293
O           0.13972773396925   -2.30267804179048    2.02330650274609
H           0.27728018916671   -1.35721341486037    2.18558837830098
H          -0.78354196198863   -2.38673517522756    1.76700401474745
O          -0.01758408890327    0.45657964759399    1.80902072594026
H          -0.11473223458431    1.36029428347298    2.13975871514352
H          -1.41400030554010   -0.29574655580464    1.23820689346541
H           0.56678018810287    0.59877661328830    1.02979285152354
N          -1.31649964935505   -0.19157865359025   -1.66145504996005
H          -0.32105574424546   -0.56946604919599   -1.85891292449615
H          -1.71976826046802   -0.64023381503411   -0.81508774960554
H          -1.18065773497191    0.83714497811661   -1.40543215263653
H          -1.92437055837946   -0.29037373347828   -2.46618416557948
