    26
        -50.47229254  Gyration_radius:  2.48024650753 Dipole_moment: 1.995
 S           1.07828873351299   -1.89237414621018    0.66777309817636
O           0.05997452306028   -2.76858435934000    0.12186843773944
O           1.48270068681085   -0.86689560564269   -0.28897430382604
O           0.73431871608620   -1.31924218077289    1.95305380737035
O           2.34727264679804   -2.80959303248280    0.91340298229208
H           2.28712728901401   -3.41200778048594    0.17967764398292
O           1.79880928451409    1.80135261036415   -0.13218468603093
H           1.90778078801433    0.84176047170929   -0.27793605951893
O          -2.05407165154442   -1.31646408636671   -0.23861144134388
H          -1.26582808219980   -1.88817635876844   -0.05281967978193
H          -2.82117948610430   -1.84943720791367   -0.02375450885122
O          -0.45308116633583    2.08566438550182   -1.70557833416243
H          -0.60842318952047    2.59787666895757   -2.49925137366150
H          -0.38277892886563    1.13021082466026   -1.99401482967728
O          -1.95054502150335    1.32655262322544    0.47606971386408
H          -1.56115520365107    1.73069941395767   -0.32034192997057
H          -2.07876678543291    0.38537323174957    0.25213607751424
O          -0.28392474850671   -0.45995758152418   -2.23609721507934
H           0.44328935567086   -0.69233551361361   -1.62164606052140
H          -1.07442537679625   -0.84347805302246   -1.83213359142057
H           1.11213083656448    2.07297249621370   -0.76765007475420
N           0.25592400032921    1.24818184576239    1.91639888931799
H           0.95836510963842    1.61968767229946    1.20712042556820
H           0.31173865502113    1.72750211356649    2.80719176838540
H          -0.70596743419557    1.33565975795861    1.47256693926851
H           0.46242645959302    0.21505178022701    2.02373433514550
