    26
        -50.47229198  Gyration_radius:  2.48050870449 Dipole_moment: 2.003
 S           1.10269617687954   -1.98400084574257   -0.19900439937665
O           0.19697084303248   -1.31171252786271   -1.12529051776681
O           2.41073358724391   -1.35839486626155   -0.17276752762156
O           0.50313528975267   -2.14985368377939    1.10938393295454
O           1.33714673529490   -3.44335062882965   -0.77156793192101
H           2.04195503429385   -3.28902421901251   -1.39150730906835
O          -2.33480286513307   -0.41870811336586   -0.93412211359254
H          -1.50148019532756   -0.85402065679327   -1.19884279391215
O          -1.35025289506078    2.16137655780918   -0.98888456226605
H          -0.47913178565721    1.82990580503773   -1.35258696245160
H          -1.59369974024385    2.92133714006356   -1.51768615563709
O           2.07984138611575    1.01698520656953    0.80500451841902
H           2.83803419909232    1.21984262100536    1.35518596247972
H           2.22050123427049    0.09107357958067    0.48005317773895
O          -0.44118427580125    1.75999716340886    1.57794375289345
H           0.48951040263994    1.54506131241808    1.37760263199876
H          -0.81964662856303    2.07689244564795    0.73791280387489
O           0.93523244479214    1.16662021019132   -1.74905084962336
H           0.72265197002043    0.21450481264882   -1.65455319814696
H          -2.17107818785303    0.53274340344985   -1.06453350151757
H           1.53563117193106    1.35472058450130   -1.01472110345921
N          -1.56676268954160   -0.62366631643104    1.56617470029478
H          -1.15666372482219    0.34330412073862    1.72938867156411
H          -0.75677871253308   -1.29620774531844    1.45171957699069
H          -2.17884142781990   -0.91230122015682    2.32013516331231
H          -2.06371735701746   -0.59312411957509    0.62461404376555
