    26
        -50.45156370  Gyration_radius:  2.67113907746 Dipole_moment: 4.840
 S          -0.37195873707349    0.79186306711806    0.35819271084874
O          -1.65001499249723    0.59994529992668   -0.45223882472471
O           0.66465744705324    0.02040117802788   -0.47159642725947
O          -0.00519485912048    2.18029159439437    0.39030303036037
O          -0.51829227540522    0.17284576096104    1.65325974813965
O           1.72126203411284    1.28234960436270    2.62127535609479
H           0.88864689080347    0.80024662513862    2.46951022209337
H           1.50064263024830    2.21378163317953    2.53877075971201
O           2.32566949756189    3.16718527494566   -0.47236244262290
H           2.21739267283545    3.50477509232980   -1.36251809456677
H           1.42855482316499    2.95597149103555   -0.14568974401489
O          -2.00813607408074   -3.35158429671503   -0.34881902495194
H          -1.50455310528399   -2.88953142710805   -1.06967642145078
H          -2.72422815246378   -3.82768490785359   -0.77237095616118
O           2.90510552498301    0.69283020495505    0.33116690659787
H           1.67175742951770    0.24892151123912   -0.15411493838860
H           2.95645966782639    1.60417425459183   -0.03435522230776
H           2.68932065648313    0.81959884547041    1.28731095746308
O          -2.73619199473024   -1.16412435855300    0.92676351705587
H          -2.49843730180783   -2.04202285914123    0.52482856933571
H          -2.08432587282531   -0.99521468646195    1.62272642157286
H          -2.20630125203561   -0.13499490857609    0.04722036734994
N          -0.79018910782496   -1.86409307450259   -2.22602061697807
H          -1.46559160022746   -1.24338397216591   -2.65630213791392
H          -0.21536466790531   -2.25866861107855   -2.96047011535807
H          -0.19068930129419   -1.28387833552329   -1.64479357992093
