    26
        -50.46361290  Gyration_radius:  2.49258976637 Dipole_moment: 6.642
 S           0.34077312660767   -2.32224497988582   -0.17326223220722
O           0.58254180740138   -2.26453423660058   -1.59530187546315
O           1.55093124261204   -2.06276456896829    0.60845838759404
O          -0.75856274468827   -1.48659292645151    0.27979954179051
O          -0.08230695952770   -3.81848586365242    0.14118435849663
H           0.45690877384194   -4.29341817083381   -0.48220033119497
O           1.16644235028772    1.87879920697362   -0.64382505740391
H           1.78194580607617    2.43817135235216   -1.11896957146734
O          -2.19306291416499    0.19409779047794   -1.27726113242029
H          -1.83799292607763   -0.54925314334140   -0.75707118520426
H          -2.14105767490315    0.96144741385610   -0.69013677430279
O          -1.33890282894972    2.35727530119172    0.35633317775132
H          -1.65522735906905    3.23401732453214    0.13558481524072
H          -0.43856265485478    2.27315551256657   -0.01502588041565
O          -1.04566771962224    0.30875806408250    2.23151746232580
H          -1.13930913112218   -0.46391392103490    1.63763628422883
H          -1.39261440422715    1.06172333235276    1.72977110214953
O           0.25093975314157    0.24833172541616   -2.36045335816160
H           0.47614772988145   -0.68941414951818   -2.18289316260511
H          -0.71890261266079    0.28725325115657   -2.19828666415335
H           0.83042322954096    1.19973988986625   -1.33644118144779
N           1.48596213301563    0.32121791441070    1.55870197254025
H           1.57365690689207   -0.68800348291679    1.18938877547591
H           1.51749151446341    0.96443869699970    0.74239679331220
H           0.51061094090814    0.38363008722935    1.99082714994676
H           2.21739462519746    0.52656857973939    2.22952861559482
