    26
        -50.46627167  Gyration_radius:  2.4459821862 Dipole_moment: 6.892
 S          -1.48468821591119   -1.32612223250266   -0.06863011637428
O          -2.70743049776862   -0.61198655772493   -0.29847276225373
O          -0.48251932274409   -1.12988935499041   -1.12229697712580
O          -0.87480510439447   -1.10395490641308    1.23438814056694
O          -1.86334046122552   -2.86583484036638   -0.11993124740710
H          -2.76858237907609   -2.80313089575312   -0.40291458591416
O           1.77496130381131    1.76659943677802   -0.26263217056668
H           2.28123301911112    2.53543164900808    0.00037895986732
O          -0.23382388767297    1.35173523387367   -2.28005029972045
H           0.54132964340712    1.62927765973909   -1.77448144222124
H          -0.39641835640914    0.42740409786352   -2.03245004639972
O          -2.15448792482752    2.05327410427927   -0.45662439417739
H          -1.61079891039162    2.01981441937291   -1.26613491023507
H          -2.56890793043092    1.17590023171251   -0.39974876773292
O           1.49254934029071   -1.71008942375067    2.16140206528423
H           0.54086521151014   -1.63359411207764    1.91488494381893
H           1.60795810336586   -1.12893971777735    2.91616660002700
O          -0.25677048466255    1.52143737949944    1.28582049137091
H           0.98244879357447    1.72134121885006    0.36816501738180
H          -1.00091940518262    1.89748979315157    0.74797830734287
H          -0.49604896990273    0.58372833592697    1.39232638780190
N           1.96857627050419   -0.88209637565012   -0.31481780851227
H           2.65760751702934   -1.35516944698379   -0.88882787060545
H           2.10033593576259    0.15749492452970   -0.32418131872707
H           0.97939921244935   -1.05704957370691   -0.68822111820264
H           1.97227748990731   -1.23307104688595    0.67890495265988
