    26
        -50.46253661  Gyration_radius:  2.45909478473 Dipole_moment: 5.011
 S           1.86987501711661   -0.16858845106954   -0.86700986416384
O           2.12753876058997   -0.79190534468866    0.42950297078074
O           1.62914033438057   -1.11529025749067   -1.92378827745024
O           0.86215589120028    0.87242825406403   -0.74386321157276
O           3.20879228767575    0.59943688799744   -1.25707508638145
H           3.72165545054035   -0.09211709651837   -1.66244415768772
O          -1.59376580702343   -1.12501080917150    1.39958102323151
H          -2.15319244188645   -1.81767404200010    1.75261373795138
O          -2.05223061713563   -0.45128064589859   -2.49607388039414
H          -2.16768479203554    0.23969002789176   -1.81480221420782
H          -1.34098309970485   -0.15105920902428   -3.06564145724420
O          -1.78035942759812    1.14318615729414   -0.28427608565093
H          -0.84125343344384    1.04211938059256   -0.52977298255637
H          -1.95507355488546    0.43973467319349    0.35599778933621
O           0.25848519767266    2.59586194044843    1.19152703141513
H          -0.66769954928252    2.68477006280124    0.93310134975018
H           0.69205958240977    2.22528971594367    0.39750133245496
O          -0.62372167598671   -2.02330274216140   -0.81457898376334
H          -1.17942358460104   -1.50884856434788    0.56633028185775
H          -1.23944084823906   -1.64506438133960   -1.47910515927901
H           0.26399122545978   -1.81399560620733   -1.15633618743805
N           0.59007274597341    0.17637654612300    2.24815124962640
H          -0.30206423139081   -0.34629325201283    2.10236908668935
H           1.28817336355191   -0.23149198659014    1.53327709542705
H           0.44643819711812    1.19220702404433    1.99058874788066
H           0.93851502952498    0.07082169813982    3.19422583137919
