    26
        -50.47116960  Gyration_radius:  2.45855025156 Dipole_moment: 2.505
 S          -1.03729702164335   -1.99358861204217    0.26754848512494
O          -1.70384019056368   -0.81212500709267   -0.25458862660230
O          -0.46549301674571   -2.85535677518094   -0.72675706242614
O          -0.07074680562541   -1.61238541765506    1.30857364399370
O          -2.15069575709510   -2.85046937142093    1.01396629001463
H          -2.08126146105314   -3.69077390045310    0.57207247722529
O           0.21318887572652    2.32281446450402   -1.41199592041914
H           0.23743592982210    2.92847262826002   -2.15307627326939
O           1.83433525858771   -1.24518640645866   -0.50353984109456
H           2.00937496614983   -2.09458281099664   -0.91542377876175
H           1.18081561786693   -1.44233938939110    0.19948066431105
O           2.14203826336917    1.42247131335929    0.31139649074994
H           2.29136693338408    0.52912061647795   -0.03293804696634
H           1.58574842731988    1.87405190737554   -0.35164383485650
O          -1.74241735972706    1.77961547807816    0.45789319963510
H          -1.95020352289662    0.86931547196263    0.16788315955968
H          -1.18757388830663    2.15144831138830   -0.25160571042973
O          -0.03214654381043   -0.13272248550435   -2.21574341936234
H           0.74329054791106   -0.57810498667887   -1.83419949852205
H          -0.77908215538985   -0.45421693769423   -1.67692049999715
H           0.10158643629426    1.40544905044048   -1.79987981879171
N           0.17709715763276    0.90820507372749    2.00184442373198
H           0.23911130109501    1.13835106176646    2.98638671146865
H           0.04469218146641   -0.12862618771777    1.85534001308072
H          -0.65289725505641    1.37975829736041    1.51848263155900
H           1.05357310129061    1.18140462358975    1.46744414104166
