    26
        -50.46810605  Gyration_radius:  2.48164232008 Dipole_moment: 3.393
 S           0.71974478580733   -0.63720855259851   -1.64282656596753
O          -0.52980237319288   -1.11887368420382   -2.19300414182766
O           0.87709875569331    0.80697846123726   -1.76712905495016
O           0.95168979134018   -1.06886315529534   -0.27706515429272
O           1.86460712783173   -1.30394137360628   -2.51518238227667
H           1.46138202627791   -1.38685282949735   -3.37361577592252
O           1.84029659318591    0.59772207207856    2.59841152942727
H           2.76147075998947    0.42975041698228    2.39218351650630
O          -2.06894510318063    1.07571765106474    0.64074463137999
H          -2.03140952543935    0.10375797253035    0.75552650824362
H          -2.22736312428285    1.20209411799939   -0.32062054596743
O          -1.90636955996727    1.14828231413717   -2.03553538639040
H          -1.55190373038145    0.24737655648662   -2.17194939887471
H          -1.17342377859728    1.72272057798331   -2.27291244686317
O          -1.56562835467010   -1.56819376216026    0.45107917633207
H          -2.04297423079459   -1.87556626200163   -0.32329906608242
H          -0.64820408112141   -1.43931013106976    0.13923955166801
O           0.81142323893019   -1.82851949308488    2.32733624554900
H          -0.14611053447012   -1.91723608414533    2.34948306166948
H           1.03457126442485   -1.76539244369176    1.38479166223214
H           1.42014072366720   -0.29512296140233    2.66009208477863
N           0.44319611103826    1.78952449386582    0.64485189311019
H           0.57216944306029    2.79525620763345    0.68671810274915
H          -0.60016656728928    1.54335755111150    0.75842505227058
H           0.72994405221872    1.42104899917923   -0.29982104845847
H           1.00456627991968    1.32149335044617    1.40407795198151
