    26
        -50.45156302  Gyration_radius:  2.6725980286 Dipole_moment: 4.834
 S           0.03346438634879   -0.51382278534396    0.79130101685008
O           1.47592620587389   -0.48218376318306    0.77695236834111
O          -0.50645488341894   -0.20171021324283   -0.61203345897064
O          -0.53890277364515   -1.74958151742423    1.24789091176337
O          -0.49956942037740    0.65407565788816    1.61497372009639
O          -1.94835145810888   -3.43922027872330   -0.27191100179004
H          -2.88423266119950   -3.28681934248282   -0.13366035544135
H          -1.47941407144134   -2.91009021821442    0.40362876656978
O           1.25366999561061    3.71928844316696   -0.19802308648655
H           1.12669703815584    4.62950737238789    0.07441345980042
H           0.36584462000688    3.37906055466687   -0.48575575930286
O           1.68318304857903   -2.91946626174887   -0.31985156728249
H           1.82339406490371   -2.04356586087262    0.08236553943072
H           1.24968675551725   -3.44853284526812    0.35490709751572
O          -0.27173225228005   -2.25420869031235   -1.97179082206552
H           0.56630314156223   -2.59912369580998   -1.57727515203760
H          -0.97919469188112   -2.81005891781630   -1.57531321729609
H          -0.41054084943473   -1.05330875391204   -1.26969248786439
O           1.57999025616172    2.01054304073836    1.78075414046856
H           1.55381358198758    2.68364104013818    1.04927699249652
H           0.30901103049496    1.30615311607726    1.75799783930406
H           2.07850405123358    1.25343777698778    1.43989026841535
N          -1.16802374850515    2.67858118144619   -0.71983882508030
H          -1.71220662079855    2.93261522403264   -1.53520130538443
H          -1.76241823412580    2.77357405600901    0.09518323752857
H          -0.93844651125455    1.69121567082552   -0.79918832957891
