    26
        -50.47116981  Gyration_radius:  2.45851104727 Dipole_moment: 2.497
 S          -0.43677276106942   -2.20381106213473    0.27216190332063
O          -0.50499027958005   -2.74351928523535   -1.05533343673884
O           0.83601382443928   -1.59497858304121    0.62183877509283
O          -1.54006205208454   -1.27567452326085    0.56268060858896
O          -0.64104724752954   -3.43087154548565    1.26391772184803
H          -0.75520294251853   -4.15632682646143    0.65820531579539
O           1.83799537108797    1.94359379486294   -0.52724539655272
H           2.58340589965089    2.39620418599568   -0.92241994447065
O          -1.32593215841725   -0.16634034606628   -1.83973394815166
H          -1.53556968025195   -0.84094438918774   -2.48993190057885
H          -1.48525718392230   -0.59932911921478   -0.97527855473565
O          -0.86718214845262    2.34538678106789   -0.67542298171578
H           0.10817756702381    2.37604875585840   -0.70230906902835
H          -1.12581499105158    1.62691070709889   -1.27197318452328
O           1.53736652491041    0.66395541403752    1.89929491604921
H           1.45051564196422   -0.24735444838226    1.55590619675243
H           1.83800161503067    1.19403325035617    1.13896346547615
O           1.42823677283448   -0.35459491511066   -1.66134618842004
H           1.75483342785886    1.06592617938614   -1.00397909840586
H           1.37907052482580   -0.95817645029293   -0.89656531191701
H           0.50987230633656   -0.29580177787468   -1.97512750022694
N          -1.03032843421232    1.06784842837692    1.63199886838106
H          -1.31366097639776    0.10223637635042    1.31357016493472
H          -1.08355000128777    1.69736780915166    0.77800848634532
H          -1.61801491187296    1.39559544048408    2.38917782571705
H          -0.00010370731278    0.99261613871817    1.91094226717889
