    26
        -50.46262731  Gyration_radius:  2.62441946964 Dipole_moment: 2.012
 S           2.25411245433830    0.63122354911034   -0.98381305361824
O           1.82605892301362    0.15720003759549   -2.27700755313623
O           1.16130709804025    1.29553904060643   -0.26398532948322
O           2.90529024671171   -0.37933936188174   -0.17181028818875
O           3.32888688099831    1.77835202013495   -1.23676185314592
H           3.94338482491547    1.36251594294815   -1.83352771617691
O          -2.31045742453131   -0.06471135743971    1.52049581113731
H          -2.80535452050665   -0.09346568715543    2.33972054243789
O          -2.95425115316181    1.42063256647122   -0.66871278435895
H          -2.75697330830896    2.32249297929696   -0.40954387909811
H          -2.86105659298846    0.87668712168223    0.14030037162682
O          -1.07301895686549   -1.99270187290522   -0.04769254342882
H          -1.66337897505696   -1.53552052500025    0.57409548603174
H          -0.20803195197738   -2.05621957162150    0.40413492851117
O           1.31605820047511   -1.84237849087775    1.24059137002964
H           1.93409569217025   -1.28844508470158    0.68969999124072
H           1.82656807332394   -2.60878650942681    1.50609664718217
O           0.16052438538053    0.51771628197420    2.09399097964956
H          -1.38129185909759    0.22218303586192    1.76446843383282
H           0.59524695552173   -0.34925214079823    2.09988883424046
H           0.55944329562824    0.97274429248164    1.32637486469859
N          -0.77760043748208    0.13276400421610   -1.58784409675289
H          -0.40524286469383    0.00744787628310   -2.52664942113213
H          -1.68173814416346    0.64676552116799   -1.53781445908474
H          -0.89194001602999   -0.80624768855134   -1.09952747744368
H          -0.04064080568729    0.67280403033022   -1.05516782564081
