    26
        -50.47190966  Gyration_radius:  2.46936233751 Dipole_moment: 1.487
 S           0.68839369323714   -1.06442977469956   -1.53349721643028
O          -0.48095500285211   -1.57611420765495   -0.84334023950427
O           0.43626626451061   -0.59631233489096   -2.87404774899414
O           1.41020642059904   -0.10004071477532   -0.71179592486991
O           1.66289426283632   -2.31841780650041   -1.70083086465919
H           1.97389315296626   -2.22878498437747   -2.59573597761972
O          -1.58906706165814    2.16440947364287    0.21772702867342
H          -1.45776212272190    2.03248465333044   -0.74209268965056
O           0.23697727138853   -0.20397832320703    2.82998255088423
H           0.60920611348284    0.61995788965676    2.47561780996259
H           0.78676825901487   -0.91667850453081    2.44061864298573
O          -1.05361502743125    1.51955133516837   -2.34456470563307
H          -0.45238598798337    0.77147144517409   -2.54049405588013
H          -1.67907265484966    1.55003222181351   -3.07064689144914
O           1.53268946202557   -1.92432954409254    1.21794916244705
H           1.63013452217946   -1.26099300810720    0.51035418297208
H           1.07366303505378   -2.65650136256309    0.80183659392056
O           1.00404205024108    1.81147175767326    1.06181550424295
H           1.15040399318318    1.12371579370329    0.37374981398101
H           1.75482258386301    2.40368458444194    1.00158327141965
H          -0.69447622077194    2.30160784294459    0.57527789843174
N          -1.73766031042939   -0.30244243064940    1.09898705196836
H          -1.04666541035170   -0.30816250011425    1.91254837496948
H          -2.63294403572721   -0.69958342794746    1.35813745526651
H          -1.82894891559878    0.70786236240365    0.76522436295950
H          -1.29680834405122   -0.84948043595421    0.31563657972186
