    26
        -50.46885294  Gyration_radius:  2.44095499729 Dipole_moment: 4.315
 S          -1.46903228104002   -1.24738275099849    0.17435129033664
O          -2.09157557744619   -1.17278630499293   -1.12703186791912
O          -0.10075332052666   -1.77204864925030    0.07741878621026
O          -1.50428966051932   -0.01172324841097    0.92659795385643
O          -2.29516996540136   -2.30666263491866    1.00511000428750
H          -2.61405615984188   -2.87128161106654    0.30994486405421
O           2.14850781683803    1.28121261075425   -0.05822981870966
H           2.98699521349215    1.70401668443347    0.12878496017857
O          -1.00628838045062    0.70428252399804   -2.67146387102642
H          -0.96369080010666    1.43547949677471   -2.01302116551628
H          -1.60177198312692    0.04260558332196   -2.26258676268579
O          -0.54496565626091    2.10071019634728   -0.45447108834053
H          -0.98074207959500    1.43568138449213    0.10878484500239
H           0.40162326165622    2.02356968961319   -0.26979014069864
O          -0.32191659874747    0.48608260064818    3.26139717904435
H          -0.87784131635409    0.25628706733648    2.49004196595138
H          -0.48466744659846    1.41451613747164    3.43653209486997
O           1.65373776596763   -0.52566629749133    1.71477390452758
H           1.09937577120461   -0.16761233391982    2.43574002683283
H           1.05590746178962   -1.11218839762428    1.21452829520185
H           1.99001878354125    0.62169642351312    0.68782605959661
N           1.13298113650742   -0.47455118000850   -1.84342752452182
H           1.71588329779087   -0.99760562465672   -2.48682437946675
H           0.30332634584861    0.02592150569387   -2.34317788827611
H           0.68644366100904   -1.10939299468794   -1.12539930989661
H           1.68196067036794    0.23684014362789   -1.31640842289586
