    26
        -50.45156379  Gyration_radius:  2.67101915273 Dipole_moment: 4.835
 S           0.61304618828772    0.51647286176229    0.50261515101585
O           1.76809595163439   -0.39372695261381    0.09703453869169
O           0.50211604358602    1.60982752128823   -0.43225477094679
O          -0.60288871963358   -0.41091802789129    0.36332241883684
O           0.74634039627552    0.90915260608987    1.87781261151207
O          -1.24530893464534    2.95465772823194    1.09122176287810
H          -0.71627325391711    3.08910636732461    1.88185232776235
H          -0.62503760029617    2.63890093739329    0.40984157482278
O           0.73855961898400   -1.27816254716485   -3.63426441081536
H           1.25755743556428   -1.84826439759527   -4.20386876691844
H           0.44523137997109   -1.83219239913569   -2.86381218048554
O          -1.07986974055864    0.46104149326782    3.77914930330362
H          -0.31904056129913    0.66939203621479    3.20127233039160
H          -0.83772379811808   -0.32324395976806    4.27350786621015
O           2.14194748212474    0.44361767977298   -2.21674217336472
H           1.62702047374724   -0.14418179922096   -2.83155963583522
H           1.57005528482401    1.19875632909120   -2.01534412369647
H           2.02310311240982   -0.12430208052921   -0.88324332825641
O          -2.49716328052325    0.66742588838877    1.53144501358461
H          -2.27707771368757    1.61041592411577    1.33344678334522
H          -1.47891218218304    0.01379841206063    0.83233359221358
H          -2.22186707291042    0.53990354775522    2.46672542603146
N           0.16063071882178   -2.65742332183073   -1.40172186811171
H          -0.49479585057390   -3.42905482997253   -1.38064113668978
H          -0.21768729280200   -1.91673408133030   -0.81682162743462
H           1.01994192490672   -2.96426492571370   -0.96130667804420
