    26
        -50.46173112  Gyration_radius:  2.49824445707 Dipole_moment: 7.265
 S           0.27016797252352   -2.15008864101446    0.94693429609359
O           1.16072325734927   -1.50130735883629   -0.01683555024498
O           0.40945874439335   -1.51329594387710    2.26059486923647
O          -1.08731415429294   -2.24009865919412    0.49561136014563
O           0.81748092459581   -3.62394222058205    1.12686940970590
H           1.69519918777297   -3.46105211740948    1.45550852523114
O           0.36782649962388    1.80206691881327   -1.79856597934814
H           0.37924159653999    2.27944280578685   -2.62852216355151
O          -2.45601899671148   -0.57690760673647   -1.09791303909436
H          -2.33682260610926    0.22971199249706   -0.58012124131284
H          -2.15273749763011   -1.29935749445033   -0.51840589035730
O           2.19241964207441    0.95368434302733    0.07479044853522
H           1.74335903805353    1.37018116888589   -0.68168892389995
H           2.01497341852993   -0.00589400060746   -0.02612574279017
O          -1.51347784147290    1.88444435884731    0.08770879934721
H          -2.10253527630725    2.62636264352856   -0.05476113023998
H          -0.84397318225727    1.90697902504975   -0.63866296647473
O          -0.04501713146609   -0.67118231713063   -2.26806556895096
H          -0.99950946338648   -0.73738337107801   -2.04010524944105
H           0.23105250855669    0.82069289347212   -2.04515984677762
H           0.42022808228833   -1.11250415870578   -1.53017586420436
N           0.35353160395886    1.02830268738111    1.91746047909445
H          -0.49645372744909    1.33112700003136    1.41471672045813
H           0.30880583088694   -0.03010355701950    2.12691712756050
H           1.18642227090719    1.13368865416259    1.24479506956622
H           0.48296927899422    1.55643293516487    2.77320208171243
