    26
        -50.47027108  Gyration_radius:  2.49069216375 Dipole_moment: 3.339
 S           1.00923897785855   -0.13643491529859    1.77930976390260
O           0.97781898372240   -1.56180538098099    1.47567695176504
O           1.75840986429353    0.60460466319714    0.77543139960930
O          -0.30540495276922    0.40929120966920    2.04018833874204
O           1.82204620340907    0.01222584096418    3.13058250442595
H           2.67036982391248   -0.34951538940415    2.89636897519098
O           0.35251896251318   -2.03703304669020   -2.51501047460518
H           1.18318681979659   -2.50668599160495   -2.60336755036960
O          -2.23791467043519    0.04566588973229    0.22986968197500
H          -1.99981202216622    0.74527102655943   -0.40514907909938
H          -1.68576573272494    0.22595067776524    1.01709414201963
O           0.24121627232865    2.77695407968202    0.92912361248490
H           1.03527104820042    2.23871567446440    0.76044969654920
H          -0.22152490638984    2.24763960762919    1.59639442796054
O          -1.12032583164646    2.08761436412018   -1.21492334486847
H          -1.46914194032842    2.84463823735390   -1.68647334435415
H          -0.62873270993353    2.44655726458155   -0.42609284205908
O           0.99348357751960    0.39333231643458   -1.80117818926656
H           0.23182130523408    0.99524623873511   -1.77202710463188
H           1.38072841496070    0.42514610195051   -0.90584110802196
H           0.59869905990213   -1.08524769186412   -2.35799709864203
N          -0.93064696504913   -2.18895646570912   -0.19467799718988
H          -0.49214782291856   -2.23377576919437   -1.15348878353347
H          -1.43365855853689   -3.04166362068643    0.02368734764119
H          -0.15619352939385   -2.01777929931860    0.51106625645004
H          -1.57353967134866   -1.33995561201747   -0.12901617212429
