    26
        -50.47027120  Gyration_radius:  2.49062089954 Dipole_moment: 3.331
 S           0.93925293007416   -1.25356239487893    1.32252129946703
O           0.57635928534089   -1.92505824688733    0.08342256597902
O           2.05174313735255   -0.33301130786071    1.12323711376347
O          -0.18331225525167   -0.63741260893850    1.99666295285519
O           1.46834944766930   -2.38585348669717    2.29556145246912
H           2.19057176946788   -2.75654693355926    1.79923321303048
O           1.48102377879081    1.66290753407592   -2.37380368858339
H           2.30589370271441    1.31654927616592   -2.71727373915428
O          -2.01499906932235   -2.03676269972718    0.64559859342153
H          -1.16597996193314   -2.28695255421637    0.23915340521761
H          -1.72541322443802   -1.59552129202548    1.45857986241914
O          -1.21526160507241    1.61348183681495    0.99014722962986
H          -0.94129432516570    0.84276065968170    1.52682026331820
H          -1.76269373828902    1.23673986450916    0.27733736563837
O          -2.52224349422595    0.06591964319040   -0.85333403268323
H          -3.41288157973009    0.05909118775565   -1.20537220371048
H          -2.42745850943917   -0.76018972669890   -0.30442898615361
O          -0.07030070829507   -0.41505242233235   -2.05457417091362
H          -0.97550205427880   -0.17975680535543   -1.79321710377045
H           0.85142328437124    0.89171557755214   -2.36207453218611
H           0.25403292935653   -1.00954786569219   -1.35171818571891
N           1.27170423360831    2.00319036634779    0.25160244199293
H           0.23247505907609    1.99679962675402    0.49336664795765
H           1.39657175938064    1.99303752617568   -0.79636145603104
H           1.73649119306092    2.79954903099820    0.67303343855135
H           1.66144802512246    1.09348619478218    0.63588025318312
