    26
        -50.45201394  Gyration_radius:  2.60738192792 Dipole_moment: 5.353
 S          -1.21111893765948    0.87925852393647   -1.61237677068921
O          -1.67638087143174    1.98344188864770   -0.80690389225664
O           0.22599426541493    0.72437746133052   -1.66373541876813
O          -1.82861583272963   -0.39849183939473   -1.22395483061271
O          -1.72085864868320    1.18385533469086   -3.08813968929922
H          -2.34694704048137    1.88572278542825   -2.93874122758728
O           0.15321822283514   -0.21555215883442    2.48523999700909
H          -0.49297101611909   -0.30803800047202    3.18578671928333
O          -1.55430000678823   -3.17602408965859   -1.16245949854993
H          -2.08406705315465   -3.73754654695058   -1.72932550882967
H          -1.85874163371200   -2.26696043768314   -1.31579750277495
O           2.04460838742182    1.92122758450587   -0.09570526167401
H           1.46378508279468    1.61862017737715   -0.81814188651572
H           2.44247536478142    1.11301043449674    0.25907221455951
O           2.65456980894312   -0.49153021577039    1.26989315178631
H           3.48092987741210   -0.38566775058508    1.74309809256041
H           1.94278464554017   -0.34998022651902    1.91291102496532
O          -0.16700302239208    2.07327156090870    1.40075260186243
H           0.00092331078958    0.71291763510917    2.09126342095726
H           0.69636057703912    2.22419135592034    0.95273321343107
H          -0.81978861456354    2.10008133391830    0.67233337674531
N           0.14911837696616   -1.43645399099910    0.10747134952708
H          -0.63581717495461   -0.95435877794659   -0.43735625940226
H           0.10072739172880   -1.12044760680861    1.10743690955139
H          -0.00080330425229   -2.44073035717834   -0.00820696125066
H           1.04191786529825   -1.13819408751927   -0.28714737404800
