    26
        -50.45156382  Gyration_radius:  2.67100205814 Dipole_moment: 4.835
 S          -0.50366028109141   -0.72558525612472    0.34007455693936
O          -1.77254872090189   -0.20538343671148   -0.32815931827574
O           0.33402379647340    0.55171443411408    0.49779764422400
O          -0.80495794146653   -1.25084866264077    1.64251621584101
O           0.17109886439491   -1.64510388912200   -0.54359284683092
O           1.87519514665761   -2.47696138986044    1.35051691142776
H           1.25722740917938   -2.83820366557125    1.99136334907345
H           1.35549153290552   -2.32291232425182    0.54129562678666
O           0.29305704320709   -0.39579515097382    3.92616021629602
H          -0.30009692683534    0.22540713647153    4.35093549013455
H          -0.20529261680657   -0.78974890846677    3.18273919426522
O          -0.28201703056827    1.26601731588090   -3.70175140556145
H          -0.81811969665065    1.68334729868663   -4.37799767979605
H          -0.37128217975682    1.81999739495833   -2.88212802640314
O          -1.31556700828104   -0.92575542007119   -2.66632107891172
H          -0.90037546447376   -0.15534639884094   -3.13822441942152
H          -0.58647665251476   -1.47067213173270   -2.33559017257495
H          -1.69581642234246   -0.46117460870460   -1.34164739723880
O           2.16523609164139    0.04778269365942    2.08174157289870
H           2.32054346664898   -0.89655656531353    1.83498308371082
H           1.17223022527778    0.39420294724940    1.16115207456032
H           1.66069910494517    0.00377098869639    2.92451751941786
N          -0.71494211867330    2.56982444051393   -1.39227918262477
H          -0.25384331132248    1.94505288313010   -0.73585649692941
H          -1.70324636504586    2.54579349610051   -1.17017868108984
H          -0.37655995458683    3.50713675894568   -1.21206674991518
