    26
        -50.47168694  Gyration_radius:  2.49109599405 Dipole_moment: 2.996
 S          -1.73436751957135   -0.95212199883867    1.17778235541140
O          -0.83787887037451   -1.55561067933576    0.19458407539250
O          -0.99980471519952   -0.59383031159767    2.38637926638610
O          -2.51771783031877    0.12706804853327    0.63239494060068
O          -2.75318993536552   -2.08326311048295    1.60950283028339
H          -2.17834556686687   -2.68583028753863    2.06861847847009
O           1.81951695571416    0.09942836877369   -2.00983783673516
H           2.23169981733111    0.08259284443530   -2.87367377353722
O          -1.49197245271133    1.98961255925570   -0.84127013961976
H          -1.90139085007722    1.31046282329666   -0.24655948537916
H          -2.11789584414610    2.71373452425008   -0.88491039079716
O           1.15182115830412    2.06273269662750   -0.19807778230860
H           0.20514710961382    2.15737447863915   -0.41732023360451
H           1.52211779608189    1.50231228761427   -0.90397132973368
O           1.84764846834336   -1.68940935478231    0.07955226696860
H           2.01452866978751   -1.17645773349267   -0.73210510563166
H           0.88647428009272   -1.86449391107673    0.06915511143337
O          -0.73929351704397   -0.34059446051463   -2.18310422854938
H           0.84771994635165   -0.09588139867531   -2.15624083824780
H          -0.87872676319273   -0.88020188223573   -1.37795727345138
H          -1.13018620092708    0.52091855174931   -1.97644912326862
N           1.36665704854225    0.28452179734646    1.74123209634607
H           0.40265696143090   -0.00575675206538    2.07698116443854
H           1.73602469342794   -0.54052246366261    1.17742981507123
H           1.27933720685800    1.09965527575973    1.06468394373595
H           1.96941994391157    0.51356006801287    2.52318119632633
