    26
        -50.46975280  Gyration_radius:  2.44543271395 Dipole_moment: 3.685
 S          -0.88245762595824    0.54400207617722    1.59522503552727
O          -1.46878565418360    0.68964601240206    0.27655054142786
O          -1.31134221697072   -0.64379741838301    2.29129854140279
O           0.57517882120160    0.67815350510978    1.53589578795550
O          -1.37682588052255    1.77134594585589    2.47081885815209
H          -2.01858200039558    1.34130505791039    3.02481278077285
O           0.85949798487353   -0.56397980977643   -2.38820615314371
H           1.34909354932266   -0.49965014003136   -3.20846828546322
O          -1.64940558410465   -1.51067096665795   -1.30723736937327
H          -0.92937355964096   -1.31505848481232   -1.92028111817158
H          -1.77618509596536   -0.69622103598968   -0.78897507643908
O           1.47741435012180    2.82187550566400    0.24331639712896
H           1.13413702310913    3.60327974659310    0.67946273678838
H           1.20525931353395    2.06099640697683    0.79625317100524
O          -0.60422045025449   -2.74217609658684    0.79532315762778
H          -0.93913558998350   -2.12570478672575    1.47887894179202
H          -1.14132327773732   -2.53456976435962   -0.00466443378901
O          -0.05307571069039    1.75954101042861   -1.72904732392984
H           0.60756104201083    2.25494464076826   -1.20768328107949
H           0.51352714514916    0.36229770089577   -2.19406515961921
H          -0.71082653119640    1.46655993726809   -1.06899561805480
N           1.46208259673322   -1.35108886491217    0.11788716507826
H           1.35159591112957   -1.10456357354272   -0.89190119580269
H           2.39382792023942   -1.69871265568585    0.31525209583330
H           1.24369949492920   -0.49943128124092    0.69659509229391
H           0.68866402524698   -2.06832266734572    0.39195472207998
