    26
        -50.46433749  Gyration_radius:  2.51949168056 Dipole_moment: 3.786
 S          -0.22532404254089   -2.08983348562096    0.66384763828754
O           1.23562536123649   -2.08021007335418    0.63656814519220
O          -0.74572774856373   -1.83207217077251    1.98915787057352
O          -0.77938412201802   -1.21035428204412   -0.35022239624699
O          -0.67777050139384   -3.55304925594972    0.26828546359708
H          -0.45314374793962   -4.04079985153533    1.05368807388674
O           1.34554695590488    1.78780898434815   -0.94575820774294
H           1.82087781703573    2.43249476841104   -1.47015503587307
O          -2.14387916514411    1.15623759764899   -2.50360760769586
H          -2.03250045637902    1.40980184705090   -1.56874495228457
H          -2.78279286761084    0.44139217510228   -2.50844783771778
O          -1.24917179466374    1.36299615627639    0.11377505127255
H          -1.16459123436394    0.39389782797666   -0.02216710602957
H          -0.41346282160177    1.74104230583404   -0.19875761392963
O          -0.34261144520378    0.70201976267575    2.60421922342126
H          -0.89119904990181    1.13498709797331    1.92339336756731
H          -0.59559497271306   -0.24749490838342    2.56342877329656
O           0.32393865961240   -0.01467227714244   -2.47539780470806
H           1.02199760044627    1.08117686181693   -1.59295528052157
H           0.03248786785113   -0.65366578943720   -1.79722978318818
H          -0.50359778805286    0.42807910279442   -2.75254094558944
N           1.87308322146038    0.34346760054390    1.27725432911258
H           1.04391376513434    0.58775523787692    1.92083115580936
H           1.82410773937741    0.94149664951035    0.42531235541582
H           2.76131491955773    0.45334839202355    1.75392149930461
H           1.71785784048445   -0.67585029369175    0.99230161481314
