    26
        -50.46975384  Gyration_radius:  2.44533543854 Dipole_moment: 3.723
 S          -1.40574906459593   -0.96309957712863   -0.84184003048558
O          -1.75623069683373   -0.27050592080152   -2.05715755158225
O          -0.03224999800284   -1.42707264840974   -0.80931178832862
O          -1.72548856657176   -0.19620159138194    0.36522831304458
O          -2.33988263191119   -2.24428139986309   -0.78101058579270
H          -2.67781483161956   -2.25300704563545   -1.66959795125694
O           2.17323415437596    0.96847671557440    1.05450679862868
H           2.82772190503182    1.20968421046672    1.71037267493853
O          -0.12030752144416    1.83320426745743   -2.26539433451562
H          -0.80198764974506    1.13843703507080   -2.37460563127366
H           0.73535776363592    1.34659362864589   -2.31672711030319
O           1.91891929192946    0.22600570106682   -1.72821282585981
H           1.30929712732008   -0.50294307614561   -1.51643044525612
H           2.29365582626558    0.50091331014471   -0.88169517366601
O          -1.09675310656568   -1.39406091355248    2.65669402742966
H          -1.42058187889369   -0.93910125670015    1.85244926499414
H          -1.56335911718334   -2.23039218307648    2.69475227184727
O           1.34944276422650   -1.44059489402815    1.48485694307062
H           0.60280151752035   -1.44665592102477    2.11434939536808
H           0.93249781637299   -1.59922140329091    0.61596535113263
H           1.90563540632715    0.01921134521762    1.26058124312645
N          -0.22082202776068    1.95874909492464    0.31112968512801
H           0.72449399409135    1.69573622358989    0.67113547892009
H          -0.16743232248577    2.06925830874306   -0.77163741943237
H          -0.87336637583947    1.14561694689511    0.45708982611706
H          -0.57103178764359    2.79525103324454    0.76450954400480
