    26
        -50.46975353  Gyration_radius:  2.44518171405 Dipole_moment: 3.682
 S          -1.41389047491601   -0.94181811760134    0.85143017308292
O          -1.19522434277617   -0.88248442365994    2.27550436114370
O          -1.58623522933279    0.35913983853759    0.23392033448335
O          -0.39346439895739   -1.72262714033707    0.14754099498218
O          -2.76636028257762   -1.74574554890659    0.64594724160552
H          -3.12616599685243   -1.70657544567435    1.52506623644361
O           1.62627229532191    1.57867546821798   -1.27727880426603
H           2.17070376493729    1.93524895412825   -1.97951297050545
O          -0.71005047500691   -1.87338273058101   -2.49017835628429
H          -1.56635781886720   -2.26586737710997   -2.66714149073312
H          -0.58588924147542   -1.91964787743809   -1.52006854081348
O           0.04891336220890    2.38636753893448    1.00779543351746
H          -0.68264569812270    1.79398363532647    0.75907245627128
H           0.62930839291694    2.41484476768891    0.23651406924823
O           1.01484346152656    0.56621085725362    2.67629919193359
H           0.20559758272111    0.01880236185446    2.74579260041107
H           0.70256548756562    1.41568015326041    2.28582505139554
O          -0.65194098936382    0.82657799399803   -2.23162292730927
H          -1.13822662022465    0.75898294934064   -1.38718376310400
H           0.75004869844649    1.32217173549680   -1.70357308366265
H          -0.60768498355212   -0.09288140794862   -2.55781828780336
N           1.88694640400646   -0.45506039494430    0.47163152829449
H           1.04884023873220   -1.05761075318387    0.26518946971015
H           1.92397003606436    0.31585372205554   -0.23332214803712
H           1.67536297497553   -0.02705075932994    1.45116933348045
H           2.74076387260802   -1.00178798938029    0.46900189652320
