    26
        -50.45156375  Gyration_radius:  2.67080016983 Dipole_moment: 4.837
 S          -0.11602980055520   -0.88060184825336    0.32768394326250
O          -1.11061360375214   -0.39760924751777    1.37854458838711
O          -0.22871979555408    0.20132748863864   -0.75600456928624
O           1.21665753631340   -0.88002193367220    0.88062243628123
O          -0.54107834884996   -2.13800899932741   -0.22134184208488
O          -1.01268501798690   -2.58872026419419   -2.81454242865607
H          -0.90327171989624   -2.56477313423485   -1.84308968238788
H          -1.95320689228803   -2.51635609668927   -2.98285115432312
O           0.46795572932030    3.11794681299191    2.33377755445026
H          -0.19972417800231    3.02368656341768    1.60439296355837
H           0.08550350799734    3.70854371510083    2.98476544060738
O           2.25699508514120   -2.22909621041011   -1.18816415988726
H           2.07842753505848   -1.75398547049928   -0.35681493631335
H           1.74736384378240   -3.04194786360800   -1.13738193756241
O           0.84667731135416   -0.67975939671128   -2.80101491661926
H           0.17745826868808   -1.34516917892282   -3.07718766279270
H           0.24719664044102   -0.10958722450210   -1.67533618955924
H           1.56433451302659   -1.21006273874766   -2.37583677828193
O           0.48610658901468    0.57436426564735    3.02130372365043
H           1.20987006590313    0.14241369989980    2.54436456215942
H           0.55870228780358    1.54639487573565    2.82479980919419
H          -0.54042846403657    0.03657192862864    2.14375031207205
N          -1.41226867416973    2.61219522518832    0.48188987771542
H          -2.23014843137229    2.21590398692400    0.92974908465856
H          -0.96843796582353    1.85675368396212   -0.03406665286238
H          -1.72663602155018    3.29959736119548   -0.19201138537023
