    26
        -50.46004312  Gyration_radius:  2.60662836294 Dipole_moment: 4.099
 S           0.15554743597315   -1.52135495094898   -1.60059355259149
O           0.17231365621533   -1.81803215403768   -0.15953036829939
O          -1.01728268790085   -2.06678566589690   -2.24522813113980
O           0.36010960774171   -0.11188190632408   -1.83906955870375
O           1.40860264695966   -2.27666525328969   -2.21311894258303
H           1.12136277198675   -3.18044386705776   -2.30786412631271
O           0.28985149838737    2.31288494061352    0.95147529201401
H           0.16703735862704    3.13453638306627    0.47423088686641
O          -2.46482395935048    0.10339484911512   -1.90517964735937
H          -1.90651227568759    0.69885107268213   -2.41348086102053
H          -2.10262058636930   -0.78875153966138   -2.10679713050772
O           2.44606827275529   -1.23214972469424    1.09288922296867
H           1.65282681804599   -1.54787252413256    0.61325791950459
H           2.27495331025330   -1.38285540148281    2.02388413071961
O          -1.32046760396538    1.27943810495392    3.06569310802496
H          -1.24576305475502    1.55476261936942    3.97969478962056
H          -0.64965379365240    1.76993304962955    2.56913666010034
O           2.18076265359438    1.09877902653846   -0.29283891295300
H           2.50538568288481    0.34489896273819    0.23273363350207
H           1.62271817890041    0.69505191972935   -0.98805845638203
H           1.10565014488783    1.88347706090756    0.53667492709526
N          -1.37064138943764    0.21037568277231    0.51766096471820
H          -0.76091392962550   -0.63931566612538    0.40197390590945
H          -1.90292565691468    0.17189858776540    1.38783294135912
H          -0.75126474838011    1.05454376879918    0.57329092479835
H          -1.97032034116559    0.25328259496609   -0.34866961934667
