    26
        -50.47395398  Gyration_radius:  2.40831866573 Dipole_moment: 3.047
 S           0.17826116106706    0.32398652729652    1.72247310028000
O           1.20167100420845    0.77049162323970    0.78631704442096
O          -1.12168263644495    0.20526750068320    1.05099715376508
O           0.54834119471823   -0.90080532320313    2.39528792095828
O           0.01641694010917    1.43875228548098    2.81368946783861
H          -0.39278624811159    2.17797283115085    2.33768132620148
O          -0.04664052300714   -0.13934910050181   -2.56221640985444
H          -0.06860919525905    0.05695918565050   -3.49963667897773
O          -1.45373993198260   -1.70574951941505   -0.77386202806012
H          -1.52939681262827   -1.01030358311522   -0.08861596900965
H          -1.08390267027054   -1.24377366559712   -1.54626609717431
O          -1.57325224532332    2.73644280287225    1.00525068831392
H          -2.45362106403011    2.98157608492656    1.29592639474153
H          -1.56760754195333    1.75307776771338    0.91550047926521
O           2.13622964097404   -0.94015410194009   -1.05623204670519
H           2.02700022369302   -0.23805460812001   -0.38406372347457
H           1.49159405338696   -0.71106265813005   -1.75026398436470
O           0.13236671021185    2.12349386030454   -1.21959099134959
H           0.63626780193990    1.71381014715663   -0.48458408868735
H          -0.05234132064084    0.73686105825650   -2.09687894336832
H          -0.57671324951501    2.60910795036479   -0.78420603230390
N           0.71862787961572   -2.59002051665066    0.39182681459969
H           0.67915500587586   -2.04375151988901    1.29490410491251
H           1.43653299635156   -2.09161063817463   -0.22223859742635
H           0.93974018764085   -3.56656647934256    0.54959718181762
H          -0.22191136058248   -2.44659792120421   -0.09079608634749
