    26
        -50.46199338  Gyration_radius:  2.60818392819 Dipole_moment: 1.325
 S           0.92318703984236   -1.66548380236857    0.86734970824281
O           1.54381826295602   -2.76592458776552    0.16905252542127
O           1.57544766131389   -0.37842051831157    0.61930606318039
O          -0.50506165356208   -1.57266922519813    0.65555536301032
O           1.15428865345720   -1.95917100536359    2.42501795161601
H           1.65468163899704   -2.76986951247610    2.42352013055009
O          -1.88080070380948    1.67533518712396   -0.77096293445113
H          -2.77649384407978    1.49914177946201   -1.06180456515765
O           0.20797457659622    2.94556834863443   -2.27639515876634
H           0.59868101759620    3.75931089747117   -1.95592695604990
H          -0.59449221632832    2.80066777522864   -1.75524338286027
O           0.68976845974831    0.95531242035413    2.76450123863147
H           1.12814970722284    0.57269722956645    1.98131935486846
H           0.76089689334352    0.28327120112815    3.44583920904938
O           0.06310698577175   -2.34273987201862   -1.99417628466927
H           0.72637848767008   -2.62062922754913   -1.32749924477302
H          -0.78076766034620   -2.53613122273737   -1.57523970902991
O          -1.71929234903465    0.62144880848324    1.57419223175548
H          -0.97528591977560    0.96706926660835    2.10511717158206
H          -1.84531618399979    1.37187923825445    0.18940001863050
H          -1.41198336917981   -0.26277469728817    1.28907969457777
N           0.29729168338740    0.28577376023457   -1.58178696974206
H           0.18591416623225   -0.68297047082331   -1.97235095047531
H           0.72167249652886    0.95749006011213   -2.22616325835309
H          -0.62609853172864    0.68982074041019   -1.29574554550618
H           0.88433470119026    0.17199742882553   -0.71595570128219
