    26
        -50.47116839  Gyration_radius:  2.45831976226 Dipole_moment: 2.398
 S          -0.28407431651408   -2.09932968243045   -0.79559514873202
O          -1.01640608800324   -1.94426061002384   -2.01944084916355
O           1.00469431448809   -1.42555477669350   -0.76826067928999
O          -1.07209196196120   -1.73583289560719    0.39053704886652
O           0.01130227601703   -3.65550654261219   -0.64547127113679
H          -0.30940772082698   -3.99822318185297   -1.47357627568836
O           1.35325676840826    2.36059936519967   -0.13144990213243
H           1.80477102050776    3.12133815346786   -0.49756838601830
O          -2.07935897487266    0.38687158711060   -0.84746101644020
H          -1.78958480613316   -0.42677368713221   -0.38505393208760
H          -2.59954421498665    0.07028147807993   -1.58976512123031
O          -1.05030298294993    2.07208102662367    1.14817450624371
H          -0.22063882709461    2.36176573503940    0.72288989999696
H          -1.58716203944032    1.68155819784036    0.44242781835405
O           2.29234223096407    0.05805195578062    1.06606612478252
H           2.02648674088298   -0.57030630038137    0.36558599161328
H           2.17930548542970    0.94142414539570    0.67073375239704
O           0.38882039695667    0.85029274489621   -2.00837928583268
H           0.71939939355363   -0.03226252203428   -1.75583255059489
H          -0.56190642614184    0.81241151823640   -1.80859296202917
H           1.02631360457244    1.82314569368276   -0.91176922983142
N          -0.05148504192367   -0.13459263352315    2.20437070435202
H          -0.47400459557048   -0.87174819270478    1.57845638125049
H          -0.17166973954410   -0.36611649853622    3.18317222249607
H           0.97737628889839   -0.06454540567958    1.91890583285955
H          -0.51643078471556    0.78523130785923    1.94689634699437
