    26
        -50.46981716  Gyration_radius:  2.45741136363 Dipole_moment: 0.179
 S           0.63001911565468   -0.75728407041398   -1.37041903142528
O           0.87963808446204    0.53658056438265   -0.74684085505705
O           0.05887357083770   -1.69496450620262   -0.40084450951530
O          -0.18005037456480   -0.63712430235827   -2.56141232266734
O           2.02470385316960   -1.33991660841388   -1.79998341768465
H           2.49853004902409   -1.44658408603416   -0.96551697013926
O          -0.72166026103562    2.71400891384782   -0.79427034655864
H           0.04268105545562    2.12538143557410   -0.94270092664074
O           1.72396711304988   -0.02065383405433    2.95425199594796
H           1.95976983335357   -0.66457192961637    2.26164592457836
H           2.43098165781796    0.62643347619984    2.96979676006984
O           2.25150125761509   -1.83180307868724    0.92346574094271
H           1.33638552994436   -1.83257863991781    0.54476223573404
H           2.40538566146503   -2.72011911879261    1.25349073845947
O          -2.20025850168065   -0.64004540907540    0.58430572463738
H          -1.71184364383326   -0.00067660579212    1.15231238019369
H          -1.50094416161634   -1.25269621119500    0.28512599823284
O          -0.38329885315321    1.04655597131872    1.55862641845105
H           0.17679600724745    0.71888934315883    2.28377672390580
H           0.13725717050762    0.84468236181247    0.75469436426526
H          -0.82158734843006    2.73372846559726    0.16538575491545
N          -2.24094188003436    0.70930982592176   -1.64182443126631
H          -1.50130002882930    0.16771468992539   -2.16570586547067
H          -3.08623805145829    0.81942771254615   -2.19087645640273
H          -2.40517016240127    0.16067704901257   -0.72829583344837
H          -1.80319667255886    1.63562861126194   -1.38294977406852
