    26
        -50.46058420  Gyration_radius:  2.53714310908 Dipole_moment: 6.712
 S           1.72586639728171    1.34812071134505    0.28873174515502
O           1.68967084898407    1.22940799784567    1.72949261571409
O           1.58265019543158    0.08247283974363   -0.40684226945814
O           0.76403803084319    2.33541023089829   -0.20245277444663
O           3.16477410042228    1.90049286984069   -0.07226422612714
H           3.30708026754080    2.49555887911991    0.65581328874235
O          -1.74710502020015   -0.79528401491596    1.01158125968057
H          -2.46010426392847   -1.10293318352449    1.57223133703452
O          -0.39087943928581   -1.47606821314931   -1.35568571907491
H          -0.91629491246809   -1.47157309973047   -0.54137477686979
H           0.38979756199049   -0.92741757942227   -1.14884368554161
O          -1.83317739882329    0.17731464181927   -2.80995486953130
H          -1.22773254849666   -0.51293555953622   -2.43244149721636
H          -2.57133750215195   -0.29290339453106   -3.19916618023725
O           1.90252256638171   -2.35104583515935    0.67306529773103
H           1.43899428542340   -2.87637410053356    0.01613989898777
H           1.99785158865158   -1.46449916633135    0.27422934545252
O           0.36832601904042   -0.95494160338395    2.41965196719046
H           0.93410911581209   -1.62300424416971    1.98237217220691
H           0.85802870639230   -0.11283810958619    2.30063413254100
H          -0.90662444972355   -0.85069185974365    1.58809830191879
N          -1.63575906756159    1.45796517304272   -0.46547911158454
H          -1.73757598045234    0.64726909220977    0.18871001362372
H          -0.62530190288304    1.83561438600328   -0.38024813424385
H          -1.77897667592548    1.10516432513051   -1.44312857162373
H          -2.29284051223479    2.19771880671985   -0.24286957015905
