    26
        -50.47116540  Gyration_radius:  2.45810673692 Dipole_moment: 2.364
 S           1.72065994651207   -1.46354980268346   -0.13183299203176
O           0.38557202752521   -1.75878145349370   -0.62884810615775
O           2.61321369157732   -0.90960665213150   -1.10881926107626
O           1.63988487539325   -0.65532068145138    1.09251838151670
O           2.35651564746616   -2.85006230193014    0.32063604346342
H           3.06660590880162   -2.95580375787522   -0.30463261726682
O          -2.30258578203548    0.96752336027479   -1.08457418123046
H          -2.93652315750953    1.26040016724989   -1.73951248833394
O          -2.08739971335105   -1.37902134101260    0.35188703600534
H          -2.37276309263084   -0.63372323372815   -0.20717673616557
H          -1.26980464090687   -1.71348317301207   -0.06771598994896
O           1.59813698130731    1.59572819949895   -0.31667809826803
H           2.43388220150962    1.66092747186269   -0.78476227812535
H           1.68907949102321    0.79403569055882    0.23893168484835
O          -0.86646204467677    2.29736562465095    0.83076528971187
H          -1.47852669048786    1.98617369099690    0.13680489430055
H           0.01099905164983    2.31747384094469    0.42032206233858
O          -0.03060624085510    0.36378926863211   -2.18323837117370
H           0.14896264392203   -0.52233018619135   -1.81632264338416
H          -1.46411670554909    0.73989646606490   -1.58438646358247
H           0.60674014338398    0.94095174615740   -1.72950734405719
N          -0.70084863933098   -0.01608264945339    2.09682010663085
H          -1.38112995282069   -0.62019276622652    1.53346768906052
H           0.26532057835062   -0.33488959349484    1.81699914468273
H          -0.80245592365403    0.98361424675271    1.75210752844645
H          -0.84235059460877   -0.09503219096105    3.09674772979490
