    26
        -50.45689050  Gyration_radius:  2.60214755041 Dipole_moment: 5.414
 S           1.13898475393097   -1.72130221434628    0.57441460644908
O           0.60803499980576   -1.68649157944324   -0.77243232938567
O           2.21615716864856   -0.74837384230519    0.74254386361229
O           0.11321507794771   -1.59004686340097    1.59466356372176
O           1.78911525662598   -3.14838517026985    0.79508375533980
H           2.49069653521072   -3.15591823302269    0.15200093942237
O          -0.37131408530744    0.65797730823004   -2.17330191255336
H           0.27843544407020   -0.01191373128131   -2.41114937448782
O          -2.55804842490143   -1.07220324995346    1.31186734894853
H          -2.51391857942206   -0.21664499539498    1.74685559274138
H          -1.68903211176990   -1.48205921690796    1.46079551213845
O           0.86215299358779    3.22578508334667   -1.88704376007641
H           0.33666857743278    2.50034479902380   -2.25335133151545
H           0.84028733745681    3.93532908788591   -2.52971641885536
O          -0.46251223447907    0.82683033953516    2.45161828852153
H          -0.24477052889365   -0.10822785026240    2.21921434490806
H          -0.06779946167750    0.98435352428038    3.31043656429941
O          -2.01015441124051   -1.18244222340100   -1.35365864706532
H          -2.43863675666036   -1.11735764119446   -0.48016684164378
H          -1.17055808554889    0.11034464863654   -1.93898456456518
H          -1.16719575871068   -1.63604885693555   -1.17962724729624
N           0.80868589507923    1.34724562637520    0.13193091413883
H           0.23604602345942    1.03917461544186   -0.70095542942696
H           1.23510141838803    2.23839113772942   -0.12832517618013
H           0.21935198953390    1.42586216935063    0.98460280785169
H           1.52100698742627    0.58577733828627    0.33268495096069
