    26
        -50.46004314  Gyration_radius:  2.49770407167 Dipole_moment: 7.420
 S           1.84095087289003    0.21503348922685    1.32694040934010
O           1.36415470598772    1.55220257984838    1.55946719313851
O           1.18432937573714   -0.81585570231586    2.10732706612343
O           1.82265522827557   -0.15577955028389   -0.09960686052822
O           3.36844139579034    0.22258287540278    1.74970110472889
H           3.49362037507169    1.15542912283256    1.88485814425308
O          -1.31121975665779   -0.31478923102968   -2.30693186814630
H          -1.56853579979833   -0.30395111527965   -3.22887162125989
O          -0.61466965791519    2.70786665266811    0.08405752963207
H          -1.36434921841774    2.10564996284383    0.24026964381560
H           0.07078451193531    2.44430947130351    0.72151614581732
O          -2.35743074442979    0.56586640255155    0.21037944211594
H          -2.21006228474846    0.26545379488698   -0.69605386510431
H          -2.04012743736621   -0.13976621887723    0.79053213853293
O          -1.20625432979712   -1.59573507511372    1.62797873340873
H          -1.57788216218436   -2.02238933435932    2.40133846715455
H          -0.31990090220636   -1.23461918318784    1.90897048393888
O           0.51562357908769    1.41618965486969   -1.90147741132699
H           0.08740319876743    2.06309598319408   -1.27938569190796
H           1.14814520450853    0.93492956649068   -1.34014266634708
H          -0.61076778817318    0.42362808993034   -2.20029863353952
N           0.05425534309883   -1.93118282121748   -0.72339454104811
H          -0.52240655174197   -2.04655141651368    0.13380041505807
H          -0.52139979475765   -1.43807697970057   -1.45712635732826
H           0.85383318462410   -1.25688658588320   -0.46022843602840
H           0.42080945241984   -2.81665444228717   -1.05361898449319
