    26
        -50.46547902  Gyration_radius:  2.52145051028 Dipole_moment: 1.486
 S          -2.04358280191289   -0.28848792820508   -0.20591600018618
O          -1.52980418307426   -0.05068456743321    1.12403401850127
O          -1.49496111483532    0.61757338419269   -1.20270670011755
O          -1.90888263249411   -1.68605469289741   -0.60016470235587
O          -3.59671432722649    0.02659614940151   -0.15052726612278
H          -3.84412947582207   -0.39520310511705    0.66541531473499
O           1.65148763221243   -2.25430649114057    1.59033140372977
H           1.13624055779009   -2.73197226071005    2.24227354279247
O           1.71388441401044    2.09570529484851    0.08967887137456
H           2.29692425234398    2.80680295751851    0.35798843710619
H           0.80604406047296    2.48198507378029    0.02008846642397
O          -0.77306927851233    2.95791871497200   -0.25659510591655
H          -0.97523938808525    3.54821842194617   -0.98507192198135
H          -1.13825130224100    2.08143686684246   -0.51642968826571
O           1.07236567730932    0.23547201728618   -1.85258340431443
H           1.50386063811244    0.85081632660100   -1.23773299147456
H           0.11717687520378    0.43948655824574   -1.78604118712005
O           0.98544426198977    0.22025511946872    1.99883869885481
H           1.50743752728683   -1.28618373840974    1.80051182346433
H           1.35059419046756    0.86805361217773    1.37357921971348
H           0.03221182417344    0.17073167411705    1.78776035230179
N           0.63840638490742   -2.16390728727683   -0.85717772647522
H          -0.41550331656479   -2.06267806419042   -0.75212312894185
H           1.07472829455655   -2.27869712864169    0.10117777015856
H           0.86283727294479   -2.95029477273772   -1.45701891682883
H           0.97049396699409   -1.25258214466957   -1.29158918906479
