    26
        -50.46004281  Gyration_radius:  2.49771255525 Dipole_moment: 7.413
 S           0.37051658351875   -2.08324430930310   -0.84794700259782
O          -0.92610405998668   -1.93271956700272   -1.45258304999634
O           1.45396725002167   -1.41741222050597   -1.54498824685491
O           0.38431304075181   -1.69647181458812    0.57432741702327
O           0.68012395992397   -3.63751789862257   -0.87386293724463
H          -0.16312525882221   -3.96509372429025   -1.16706404071433
O          -0.43112406413223    1.79904714379223    1.92940296326361
H          -0.69716861032938    2.23607866650957    2.73841601219771
O          -2.66874573875499    0.04729004819150   -0.76657623917537
H          -2.16016654275386    0.85034582211795   -0.97993586651970
H          -2.16626063929753   -0.69142738592828   -1.15061487026991
O          -0.82949383101053    2.10698304182410   -0.89116691397877
H           0.03121160013054    1.81794874931365   -1.22414401168524
H          -0.73466344476580    2.21275252173793    0.06454134138127
O           1.74696296873979    1.12542899643889   -1.52615309621122
H           2.28733387510433    1.40319518779539   -2.26715622488655
H           1.59354851402751    0.14701438093737   -1.64549455674929
O          -1.73910480870931   -0.37113075893933    1.65177425795854
H          -1.05361913352285   -1.00192394170616    1.37074199254935
H          -1.01615444773850    0.96275179995011    1.85421892514818
H          -2.27372152264860   -0.21572886045775    0.82780208793707
N           1.69122642003629    0.47219517233907    1.08188629304071
H           1.92319534936634    0.86870501369594    0.14940660385317
H           1.21913983956366   -0.47944069603809    0.89564885434776
H           2.51620363399129    0.36055488199428    1.66017347266438
H           0.96170906729663    1.08181978074429    1.53934682551906
