    26
        -50.46004311  Gyration_radius:  2.49770540034 Dipole_moment: 7.419
 S          -0.77162087225645   -2.12791309169503   -0.26825438737594
O          -0.81571786605629   -2.10822407146614    1.18109056387802
O          -1.89336717554820   -1.50707853911296   -0.92069013290514
O           0.52259222676158   -1.59618143143093   -0.73205160519830
O          -0.79841042514636   -3.64742412514888   -0.71821395472081
H          -1.47526797555204   -3.60620149550753   -1.38488992203889
O           1.66534404284209    2.05105059421529   -0.40048621158030
H           2.29434028803627    2.66661524314132   -0.77695683660478
O          -1.91678484942887    1.11172879802490   -1.67553886771419
H          -2.09025883767331    0.18219718713387   -1.44854497414848
H          -1.78997736057031    1.57062192772419   -0.82559030233412
O          -0.97017843377542    2.11178405017297    0.72140737019658
H          -0.88782427965120    1.43135953315685    1.40363214770265
H          -0.07586852254525    2.29550549303765    0.40514244186261
O          -0.41657051732316    0.02058811692564    2.54545308303772
H          -0.68755480339976   -0.79593204091597    2.04061507929483
H          -0.78846680397664   -0.07292830118513    3.42361057853966
O           0.60314568452407    0.66202690348966   -2.25530791115777
H           0.61582678949294   -0.23779532858524   -1.88525113305687
H          -0.35590076526556    0.92234862110642   -2.21915182608960
H           1.24614041104737    1.55581831363706   -1.19184770988150
N           1.78646614291977   -0.17670771790098    1.01613932546841
H           1.31127138404341   -0.83934079515172    0.31020438516981
H           1.90529971909790    0.74808326804100    0.52256088520571
H           1.11345973682972   -0.05511330145648    1.79899845454758
H           2.66988306257356   -0.55888778024973    1.33392144990305
