    26
        -50.46263506  Gyration_radius:  2.56862763608 Dipole_moment: 3.572
 S           1.43319926342410   -0.72921949112612    1.74233136396720
O           0.44261146766742   -1.77868585766257    1.84980235120678
O           2.56939236058752   -1.06869199788507    0.92068620594372
O           0.80584081518659    0.54662897686296    1.37394891324817
O           2.00677351253346   -0.47002111244661    3.20425936033442
H           2.65032181422308   -1.16539901458590    3.29480777419811
O          -0.76375670141584   -2.15244102980979   -0.48122763086112
H          -0.31392994717255   -2.37311862233567    0.35777747013095
O          -0.75046526594876    1.17618771115443   -2.32044162763833
H          -0.52200910689960    0.25056357299294   -2.44501170277143
H           0.00781180519216    1.56667557328540   -1.84636174540282
O           1.42747258040635    1.84417622793991   -0.83624576299260
H           1.24844104321790    1.38714491854812    0.01761191930331
H           1.84339441148110    2.67807250494251   -0.61537893235413
O          -2.88618948403604    1.63021083825394   -0.82234726035428
H          -3.66858128966547    1.41901953246074   -1.33352031658300
H          -2.12423825762015    1.57869351878967   -1.44938112972727
O           1.41468597845153   -0.91389585490542   -1.46357821584996
H           1.94093418529211   -1.11281004306652   -0.66372654115146
H          -0.04215092226025   -1.80008709999575   -1.03968992125724
H           1.60196134247404    0.01720146500142   -1.63255655740005
N          -1.69043550433367   -0.09232387575593    0.84650613986032
H          -2.23340705457725    0.62436111706122    0.30785004570095
H          -2.18637081255424   -0.39897271101967    1.67653395886772
H          -1.46887758631823   -0.93857890413412    0.22772278978455
H          -0.74242863732477    0.27530967744967    1.12962907180288
