    26
        -50.45156383  Gyration_radius:  2.67091526366 Dipole_moment: 4.834
 S          -0.84676560383156    0.02583549789261    0.42295039617373
O          -1.33019742367711    1.11403332003881   -0.53055882256545
O           0.25438627441121   -0.66467058261949   -0.39482564797626
O          -0.27304718837566    0.62935918527578    1.60124116227246
O          -1.89960961194567   -0.91704927623011    0.67907269703483
O           2.00293800896210    3.22093063375494   -0.99978879952800
H           1.77400182492087    2.46144746362073   -1.59761704500839
H           2.05974585032119    4.00167475859431   -1.55306006299045
O          -0.13880233196263   -1.69476677291384    2.92982088261629
H          -1.06907105683568   -1.93381966388393    2.95291287453961
H          -0.11234884258201   -0.76794724252254    2.63159367219843
O          -1.74832539716429   -3.54343401256100    0.19907124994509
H          -2.16547754189374   -3.73751616271939   -0.64144990026501
H          -1.95507937871277   -2.60926498450867    0.40108321537593
O           0.76406084743910   -2.81669355308152    0.71198909201022
H           0.54556009161541   -1.60540176641289    0.05006562690476
H           0.62236456869270   -2.53917895413421    1.64993304161766
H          -0.04310992033667   -3.32814234262207    0.48037789586700
O          -0.17231130387720    3.07157706836031    0.47984776820794
H           0.03134185598048    2.52678509457849    1.25422718921734
H           0.68359647095882    3.19584814540679   -0.01078179324808
H          -0.90138729021533    2.00955111343774   -0.19435272757547
N           1.11082912027808    1.19759838920775   -2.52664635113267
H           1.66872492222111    0.75806334326501   -3.24851690181075
H           0.21660176792274    1.44869992653587   -2.93156490080775
H           0.92138128769421    0.49648138424057   -1.81502383106576
