    26
        -50.46911893  Gyration_radius:  2.45479490659 Dipole_moment: 4.004
 S           0.92258614593082   -1.94573585002342    0.61605968191229
O          -0.30724490645815   -1.43382937274776    1.20503595520838
O           0.71866141454029   -2.85767557579656   -0.47171953932972
O           1.82444331889852   -0.83407176672200    0.29214229552115
O           1.65460156883668   -2.77125752582212    1.76313598985155
H           1.89787485057806   -3.57353464829314    1.31182610682055
O           0.18315197441947    2.29228080170239   -1.41068936439807
H           0.40716240191005    2.89812984112773   -2.11730771818899
O          -1.27087853267681    0.91168117687754    2.07973882554105
H          -1.83012638444507    1.12301916623956    1.29514997161932
H          -1.08735930516234   -0.04183515002881    1.99986390297869
O          -1.56206775942481   -1.33347877809593   -1.11025260293951
H          -1.17831196389173   -1.41590669900826   -0.21060231101070
H          -1.52613893316438   -2.22255067725734   -1.47118888682646
O          -2.26679786621228    1.31060417170312   -0.36863041501025
H          -1.54104051307509    1.77898636273096   -0.80649874096221
H          -2.26242466615398    0.41438408528737   -0.73037511641857
O           0.69966316708033   -0.15684581924699   -2.06792128501979
H           1.27537428980412   -0.49937045074742   -1.36257480373041
H          -0.15155875058481   -0.61774096185000   -1.93609076193156
H           0.39622249961820    1.37025558664447   -1.74837494556751
N           1.02224824888917    1.54421386320981    1.05997622213427
H           0.08592464259856    1.37222555225519    1.58731902012149
H           0.80089733802070    2.03121280963081    0.16974286161259
H           1.68502016646880    2.06942289257031    1.61844520806608
H           1.41011756355267    0.58741695669858    0.81379046994074
