    26
        -50.45493796  Gyration_radius:  2.63890646112 Dipole_moment: 5.974
 S          -0.25848019966173    0.43295644031222   -2.63349394087643
O          -0.79509500142328   -0.93511546359870   -2.61394421471306
O          -0.79564882132978    1.19125681893213   -1.52111029071227
O           1.18330811509942    0.46553333507232   -2.72224106804666
O          -0.80767388779798    1.10386673951261   -3.96272521403345
H          -1.74302147666235    1.18314509427034   -3.79978915622961
O          -1.86680173490591   -0.13365214451588    1.50985042199486
H          -2.78105968940070   -0.04281586544045    1.24020701032054
O           2.17267249466610   -0.44958432113066   -0.53892209490050
H           1.84179995085369   -0.01885229504298   -1.37615292634272
H           3.00761981652515   -0.86028206300738   -0.76973393416209
O           1.65096646556062    1.00654700618063    1.76194492155540
H           1.99710716922585    0.65565157532789    0.92843295831857
H           1.31279418792864    0.23443120734930    2.24522430035339
O           0.27139956278374   -1.12577204782844    2.94567677808059
H           0.27164757409602   -1.00094093546622    3.89572837582006
H          -0.58867573298573   -0.81045662478199    2.62584607201013
O          -0.70170503553698    2.06861889362037    1.00601623713162
H          -0.69600653417934    1.94672897134257    0.03852836405955
H          -1.44800622201822    0.79158162249261    1.36779281321358
H           0.21549896370205    1.87858374902496    1.30479208739925
N          -0.29192353862871   -1.53428730874963   -0.17099280261753
H           0.68644521652391   -1.18789360780953   -0.09398867525119
H          -0.57970935552101   -1.35763578510439   -1.19856657223757
H          -0.33383739232991   -2.52034805759449    0.06680531912055
H          -0.92361487466195   -0.98126492334781    0.46481520072453
