    26
        -50.47229309  Gyration_radius:  2.48043952309 Dipole_moment: 1.997
 S           0.17378484328482   -2.22152602492027   -0.47881198635669
O          -1.19394629801038   -2.31057384586759   -0.95212252635478
O           0.87384474606965   -1.07727831735003   -1.05484455307568
O           0.30122745069345   -2.25694639861621    0.96373209876901
O           0.90353077348045   -3.51908686153146   -1.02242257574096
H           0.50064234038780   -3.61520929207505   -1.87876625194046
O           0.33192432145460    2.65483224721890   -0.54803111810904
H           0.32737208821197    3.50186527599466   -0.99410733420393
O           2.38721114606965    0.88990185537112   -0.01305782931400
H           2.02687046098055    0.14807022627589   -0.53635749319964
H           1.82483673631360    1.65191646852075   -0.24165370278041
O          -1.05378464930767    1.51707091628374    1.54104085356244
H          -1.62517280403932    0.91102194445798    1.03239820195750
H          -0.62871293853661    2.08949900205288    0.87704853027798
O          -2.44315882877329   -0.23160100145313   -0.04513113574102
H          -3.33587534510874   -0.49646672435424    0.18203009303280
H          -1.98458323037763   -1.05608513529771   -0.34985871852226
O          -0.74624994388764    0.79740184899230   -2.02357374252975
H          -0.13304066973463    0.06307073268091   -1.81087513076011
H          -1.56570129675157    0.56985931471396   -1.56315776188915
H          -0.07836523540775    1.99823742635229   -1.18177171053627
N           1.03947549029441   -0.00098875828134    2.05389972719550
H           0.76622440981362   -0.95776445317868    1.69170208863564
H           1.42091079375974   -0.05889869925680    2.99068303667935
H           1.73639041056550    0.39461101705769    1.35217308798551
H           0.17434521856132    0.61506721621122    2.00983586295868
