    26
        -50.47214171  Gyration_radius:  2.4184102118 Dipole_moment: 3.331
 S          -0.70242321001904   -1.69505808330378   -0.40725300343109
O           0.02013231519524   -1.60910229497668    0.85348490850393
O          -1.95023455139162   -0.95231618778867   -0.36606146061854
O           0.13228564573622   -1.35084115916098   -1.54009026453313
O          -1.09563446910200   -3.21298314193015   -0.59672763505716
H          -1.71658391057422   -3.34494975936985    0.11152197051883
O           2.43963164948614   -0.79461756822643    1.67833233551355
H           1.63432242640860   -1.32052391798377    1.51184460297922
O           0.75756629821553    2.18206556851504   -0.39336632062104
H           0.47102520525413    1.88895506463418    0.50571070832096
H          -0.01085500293309    1.99159255440005   -0.97149234819870
O          -1.25622589625941    1.13737912418612   -1.85866244725271
H          -1.57541256934815    0.37702662323289   -1.33256809504340
H          -0.88900535295640    0.74567893231302   -2.65339793892702
O          -2.70214612951097    1.21931725861458    1.10779640249210
H          -2.60161005750401    0.36521096217406    0.65370620371963
H          -2.80527668610341    1.87000572680874    0.40936717091884
O          -0.09231977105380    0.92779729030596    1.78521237058248
H           2.14910127087963   -0.07746255442306    2.25112693888637
H          -1.03568896457986    1.17871548060648    1.79470542628242
H          -0.09786032015942   -0.00765546705844    1.51117995977783
N           2.21849604150547    0.09356222678573   -0.82821836932070
H           1.72645271314474    1.05396006980947   -0.70937216090709
H           3.00824169637785    0.13645655964633   -1.46187450566141
H           2.50009688182869   -0.24178310068228    0.12933658758513
H           1.47392473747277   -0.56043020714443   -1.18424103652837
