    26
        -50.46214719  Gyration_radius:  2.46100793937 Dipole_moment: 6.841
 S          -0.79216398429068   -1.83049110561720   -0.42583696726645
O           0.51260301910073   -2.28891902599646    0.05789138118451
O          -1.47876418877967   -1.09507701347392    0.63061604698368
O          -0.72531124119172   -1.10188712206067   -1.66254684123337
O          -1.63301255276457   -3.13899954087828   -0.69744016623653
H          -1.51631955957486   -3.60791134576726    0.12108439549789
O           1.75487861198300    1.55789386403676   -0.06645262579500
H           2.33991360068147    2.30853703358815   -0.17292928257774
O          -1.03654486425690    1.58248600138171    0.38975966557599
H          -1.26116379117756    0.63510271237343    0.34359548863420
H          -0.08106749208365    1.65222861782814    0.24536083399045
O          -1.35975363051079    1.59074833998598   -2.38917654054237
H          -1.51108870540492    0.63657259770831   -2.38982802194234
H          -1.44639927905722    1.85458295946765   -1.45830019133240
O          -0.76367391575569    0.18931097474595    2.85517441679703
H          -0.98573018381510    1.06598465833534    2.51183099334414
H          -1.23814548710521   -0.41672566296175    2.25352445555817
O           1.16983799739416    0.65867617213918   -2.39141482313955
H           0.41890087831758    1.24086140193183   -2.63417711634971
H           1.59249584090720    1.19325612445112   -0.99913275134648
H           0.72081545044867   -0.18901681557332   -2.22141323739693
N           1.48746195516573   -0.49790074513523    1.63678556993788
H           2.27579926208910   -0.81982452285145    2.18766303307273
H           1.75421675110325    0.30723501148160    1.02956156910170
H           1.13001773140106   -1.28283034345709    0.99291006878721
H           0.67219776716835   -0.20389323568383    2.25289066669510
