    26
        -50.45118748  Gyration_radius:  2.60829786613 Dipole_moment: 6.433
 S          -0.56422805392004    0.51377204899403    2.09866756222223
O           0.72385385645358    0.94445332958940    1.57733238896662
O          -1.63362544482552    1.14937507455920    1.31376109086029
O          -0.72495254504840   -0.91057350445963    2.18947389508224
O          -0.66567048355057    1.10741354897177    3.56762326382589
H          -0.19149862462810    1.93031626600782    3.49350783172307
O          -0.19626056318233   -1.81307367426808   -1.59629772234250
H          -0.92220160133587   -2.41038717110970   -1.77850135696081
O           2.67371120882470   -0.57582465156114    0.55817496860555
H           2.60490777145478   -0.28909487361142   -0.36324967698525
H           2.07732706192307    0.01817777713358    1.05338680371611
O          -2.88642378536312    2.12564406516173   -0.96496997313353
H          -3.79956235799960    2.41255019526761   -0.93233434537795
H          -2.64370183563424    1.88161902451073   -0.05678268277688
O           1.95122658938033   -0.10920415744780   -2.16194190053882
H           2.69555029914348   -0.35264456862886   -2.71406014562500
H           1.34766492055231   -0.86822654665818   -2.15411182401530
O           0.78904293275312   -2.46607212745803    0.64786230970018
H           1.62342124999914   -1.94447063963034    0.68557998024017
H           0.20253474551163   -2.03108625803734    1.30096061812047
H           0.20248962916844   -2.13192824541996   -0.70363201567659
N          -0.52464345404511    0.76969427039627   -1.02760427705078
H          -0.85032731988119    0.89545733575341   -0.02271232630756
H          -0.52371501195686   -0.25814910724182   -1.27427457882243
H          -1.19375651473941    1.29548741503907   -1.59845062912948
H           0.42883734093475    1.11677519416378   -1.13740725831603
