    26
        -50.46147050  Gyration_radius:  2.59199750131 Dipole_moment: 4.227
 S           0.62110815887110   -0.20304485703271    0.35976833874247
O           0.68680134674925   -0.71355069805454    1.70791116035122
O          -0.49254221943732   -0.72969055177963   -0.41672108033800
O           0.41967342279893    1.35593341243526    0.41633585085588
O           1.87829153890662   -0.36430416263216   -0.39088694270284
O          -1.85336323911724   -1.56793737206467    1.75297744082233
H          -0.92362157144977   -1.49228615600960    2.02550455169082
H          -1.79582307849081   -1.41608489862778    0.79851232399628
O           1.64065074829522   -2.00797017824058   -2.52033937013704
H           1.82443860436837   -1.49942676215920   -1.70536864437991
H           1.42145017144880   -2.89556045273224   -2.23309863711212
O          -2.71849139028964    0.70853921976331    2.83506851509473
H          -3.18237908509392    0.50583350086398    3.64886133010187
H          -2.51702235015844   -0.15968288923242    2.40947957921011
O          -0.35242801731091   -0.26878521591640   -2.99563215288723
H           0.59384371390565    0.83386884136750   -2.65608994151883
H           0.27702021502789   -0.99956475546388   -3.16419162080427
H          -0.64533871341210   -0.44744808430365   -2.07076778751186
O          -0.18062973932985    1.54928601021453    2.87438707779811
H           0.15842805852526    1.57259831620790    1.37062771916218
H          -1.15228222205839    1.38645144427906    2.91230357049562
H           0.23386344938252    0.67592483011587    2.94629393514665
N           1.35044809421036    1.44323802474267   -2.13637623495315
H           1.74865322206069    0.74408915037489   -1.42040627085695
H           0.89736901911701    2.17470314043714   -1.59064937768879
H           2.06188187248148    1.81487115344915   -2.75750335258016
