    26
        -50.45538161  Gyration_radius:  2.56577571367 Dipole_moment: 4.101
 S           0.59295800515445    0.72685813624050    0.47466874084241
O           0.91232180228536    0.01540288620894    1.68794428947512
O          -0.58192891283958    1.58806418150923    0.58600498094192
O           1.77238465642912    1.64105537688513    0.07710128500660
O           0.39511161371370   -0.21555602355101   -0.65443775521834
O          -1.76002820909761   -0.25393469218098    2.08024248116828
H          -0.88422280537925   -0.60122555690097    2.29634567319616
H          -1.54615199857599    0.60637536395848    1.67660065563928
O          -2.14915475921832    2.18930227056820   -1.38137448968275
H          -1.70648732135591    2.82463374175535   -1.94704844858549
H          -1.58488561225634    2.10098326958185   -0.56937563919464
O          -3.13622093987972   -1.31533124034835    0.12947969550468
H          -4.02167971956954   -0.96479667696584    0.24548870134555
H          -2.61526090549540   -1.01875151928521    0.92640511553570
O           3.53987252277895    0.15097278329661    1.13622933364846
H           2.59276987800503    1.17473902444374    0.44226057103986
H           2.82934575504585   -0.07708338378668    1.75481960476052
H           3.53124470347189   -0.57711524668325    0.46656452953008
O          -1.79439728509655   -0.29906782132891   -1.76734058223127
H          -0.80875234996242   -0.30643180283754   -1.32920984890846
H          -2.38386949952122   -0.77171967915233   -1.06046146912567
H          -2.04563433862832    0.69305041224416   -1.74361174995201
N           2.87875852005143   -1.69243865772118   -0.70745524593790
H           1.95672206798685   -1.26055209703846   -0.76193069452898
H           2.74891479438774   -2.65324313244045   -0.41625863587101
H           3.26827031756853   -1.70418991645139   -1.64165113841393
