    26
        -50.45156365  Gyration_radius:  2.67076288236 Dipole_moment: 4.837
 S           0.20863140949800    0.92052132244254    0.07082297794518
O           0.91167601806613    0.69534023741993    1.40588091746061
O          -1.17809553473486    1.24728960029612    0.29866461475473
O           0.93272006015249    1.87716104152928   -0.71896157670630
O           0.31401824651588   -0.45913182315745   -0.59482822935225
O          -1.39458527670775   -2.12356956765367    2.98716807991172
H          -0.60612414125567   -2.34539090625519    2.42527447404635
H          -1.23821740893330   -2.51173547663692    3.84957285932104
O           1.91378508382426    1.41075611397938   -3.16232880051333
H           2.84196278328671    1.18307968818883   -3.09336909192325
H           1.63701526924732    1.71430078066572   -2.27486746949548
O          -1.59970210205487    1.96272413762864   -2.24967462856331
H          -0.97287931355463    2.68631239796132   -2.33047574141184
H          -1.65174773819170    1.76447821258017   -1.29750943519518
O          -1.08491553192451    0.49104674147299    2.87771044789548
H          -1.29147926872161   -0.47768630538120    2.96417972975325
H           0.15375664047638    0.59806462711903    2.12329234855438
H          -1.63085402392568    0.82450687604409    2.15062511978445
O          -0.22433987063378   -0.17084870397815   -2.99109409550630
H           0.06475281725569   -0.41078203388286   -1.64536498800636
H          -0.90097670161799    0.54458597491464   -2.90680097422526
H           0.58762545005408    0.29079736422490   -3.29857571836118
N           0.83329183501329   -2.45766616499983    1.52222373399848
H           0.62295706628637   -1.86339403689504    0.72444534309495
H           1.13165217636301   -3.35664766839658    1.16413388520539
H           1.62007207621642   -2.03411244920296    1.99985623753414
