    26
        -50.44842517  Gyration_radius:  2.48749499015 Dipole_moment: 3.799
 S          -0.02295499634552   -1.50909666464465   -1.25338725402116
O           0.45575633777042   -1.44162092315598    0.11857737654144
O          -1.00788423044263   -2.52444218906287   -1.49281237143804
O          -0.42376720753533   -0.17742323760097   -1.72390124095270
O           1.23825401364515   -1.89736590556581   -2.14422883581747
H           1.04912399409960   -2.79963239458950   -2.37896578540623
O           2.98468987422263    1.49401145331174   -0.44077034744112
H           3.53863230637498    2.20297096002787   -0.11010620767466
O          -0.18627379164735    1.66383688035192    1.75013004435180
H          -0.75761139979902    2.34856482082889    2.10015039546711
O           2.19163876828944    0.00170830838613    1.53486305063121
H           1.66625732674269   -0.66604000017231    1.05018812682031
H           2.85024895549190    0.85322547067589    0.31346051320508
H           1.53997969775045    0.54050959412558    1.99930393254471
O          -1.46047790365056   -0.53638592410260    1.73039480288793
H          -2.18442190173931   -0.53303469167299    1.05602966498695
H          -0.76068350659529   -1.06353829897576    1.30025415565921
H          -0.72474895251940    0.79481914398258    1.79326046376139
O           0.48272076962909    1.85995708216705   -0.70519128674752
H           0.09457789278971    0.96792615481709   -1.17991516999920
H           0.19155995814308    1.80942034812263    0.27911555495588
H           1.50503791642961    1.76392095427092   -0.70686837131379
N          -2.99773322222211   -0.72192490301763   -0.45641134010420
H          -3.97024383468473   -0.99967103282421   -0.51676946198203
H          -2.43382742567858   -1.48635039797172   -0.82568177457141
H          -2.85784943851672    0.05565539229148   -1.09071863434730
