    26
        -50.44772985  Gyration_radius:  2.51303233324 Dipole_moment: 2.776
 S          -0.33980689834668   -0.65727954884847   -1.97946144062300
O          -1.57144085688549    0.08826039359132   -2.08497013226985
O           0.82660453703340    0.16172267608712   -2.35284692041764
O          -0.15372208220709   -1.31016481126715   -0.70334568504210
O          -0.40014280868692   -1.80139157540111   -3.06916033188774
H          -0.60255332235006   -1.29376822082470   -3.84765987109040
O           3.34308980326311    0.14135167249750    0.65644583660407
H           3.86769292938322    0.50324707371825    1.37222707705182
O          -0.00612787785475    1.81328029050700    1.17818628863109
H          -0.16101454208541    2.69624025893756    1.51737495064201
O           1.08568158333148   -0.75033368383166    1.60826700172286
H           2.57877157378410   -0.34634090901226    1.07422863788394
H           0.61965670315527    0.08164731395413    1.77038288613569
H           0.67217671924887   -1.10970371041650    0.79987180156970
O          -2.23667455101969    1.00982043024069    0.30910155219734
H          -2.40067203057414    0.15234231462287    0.76923883833846
H          -0.91991673444420    1.49177782519224    0.82281809079798
H          -2.09154162150341    0.75575004542445   -0.62674877961706
O           1.76594408807598    1.65357179974168   -0.65604163539470
H           1.03061439398994    1.75960784033454    0.05046678122695
H           2.49824170034184    1.08966869594655   -0.21053142608551
H           1.35520938633379    1.01738549359432   -1.44075971959187
N          -2.27100044374347   -1.52341850085795    1.26325883135297
H          -3.05531505676499   -2.13928412331765    1.09120531858211
H          -1.85849595904091   -1.78724202421339    2.14948450601039
H          -1.57525863249139   -1.69674700636100    0.53896753322688
