    26
        -50.44842551  Gyration_radius:  2.4874286182 Dipole_moment: 3.799
 S           0.70726041211708   -1.76650794478042   -0.47643387484953
O           1.14185203932989   -2.30369294760672   -1.73381800180186
O           1.40707489445633   -0.56194044922347   -0.05805132041230
O          -0.74554489756543   -1.57312282073208   -0.38963654943553
O           1.04038206024308   -2.87490847951046    0.61692393062024
H           1.63088100808206   -3.45265434360937    0.14521309646556
O          -0.68460119778900    2.30247912284777    0.31159010621453
H          -1.28660428241154    2.97445676416504   -0.01060291542041
O          -0.50018780492583   -0.09624434703816    3.32761232062321
H          -0.77395350695648    0.44006634338852    4.07342163813844
O           0.74940182416861    1.48864045101535   -1.62410381848432
H           1.22445211232956    0.79779232137453   -1.12445671807232
H           0.21958922233166    0.96782090795771   -2.27743801690022
H          -0.10705190893164    2.03090257962571   -0.48810520420923
O          -1.71885217652967    0.10803592053980    1.10571595533696
H          -1.33519649681135    1.00220237901235    0.77523434994983
H          -1.30246761452544   -0.65495208425093    0.46007218825552
H          -1.31404643919146   -0.05111917964634    2.03582504637757
O           1.37105497496245    1.12840688556508    2.00205443134673
H           0.32728750718289    0.32194952425812    2.95607900209634
H           1.55137364109228    0.46783711946221    1.30351504909305
H           0.91606204786180    1.84917274443448    1.55019293690536
N          -0.54651052313128   -0.37693214742867   -3.04559572093523
H          -1.43419486286975   -0.62931514882570   -2.62746087314661
H           0.11185896151641   -1.09901734506105   -2.75614602467107
H          -0.64931899403513   -0.43935582593162   -4.05160102309032
