    26
        -50.44849472  Gyration_radius:  2.4857030688 Dipole_moment: 4.248
 S           0.95142399070254   -0.20925478855811   -1.71161386764763
O           0.72673220028806   -1.14244577577099   -0.62571163917214
O           0.49436525407069   -0.63334118966613   -3.00331481069895
O           0.45356363059075    1.13157752838424   -1.35212085462532
O           2.53102907515808   -0.05562622408295   -1.82366345261260
H           2.66065472387578    0.05563280163687   -2.75978382512463
O           2.30942137379054    1.08746715235288    2.17539532304491
H           2.43999114035972    1.30747492489204    3.09916622620308
O          -1.36390394578620   -0.07881900501350    1.99231974026702
H          -2.19342059419380    0.21177462808307    2.37345691893138
O           1.27143016026472   -1.29004819551617    1.98238494109063
H           1.21048225279776   -1.37626988789435    1.01068932501593
H           2.08288220172375    0.11566809300846    2.13763796266428
H           0.36011830576605   -1.17228701596149    2.27711831903365
O          -1.85786248964089   -1.50932781726660   -0.05575368877060
H          -2.18854510440896   -0.94281070304485   -0.79606562463890
H          -0.92572556746729   -1.66002738135169   -0.29661864039691
H          -1.60862270545753   -0.67672026054217    1.20111205188728
O           0.14586640447102    1.73261136575150    0.99940882817954
H          -0.48458958060855    1.02565222548070    1.39074196995835
H           1.05380122624690    1.58545104107689    1.45211962114931
H           0.29109198060153    1.47739557635630   -0.05329976335522
N          -2.16342975946564    0.10492327066289   -2.17465016757334
H          -2.89648060418888    0.06754787625868   -2.87314873259777
H          -1.30657352643122   -0.23613879772172   -2.60832599278165
H          -1.99370007304645    1.07994056845351   -1.95748015742663
