    26
        -50.44772986  Gyration_radius:  2.51303537429 Dipole_moment: 2.776
 S          -1.91241055210871    0.43785256375208   -0.78528842202483
O          -1.83402695712682    1.82108815569054   -0.37982272066856
O          -1.31316602279659    0.22479277545096   -2.11427659942988
O          -1.39797503931315   -0.49312579229341    0.19348384058788
O          -3.44574393903235    0.09922822773009   -0.97050558477472
H          -3.71201415193859    0.79939174551594   -1.55666806588868
O           1.47277730938272   -2.51531980860312   -1.76957019828182
H           2.35670827423158   -2.88490235427115   -1.79412208504873
O           2.01790964767729    0.77732523482804    0.00418051407816
H           2.79451388296351    1.33661181383096   -0.04821199439216
O           0.93033717386905   -1.73995235649546    0.65973198769834
H           1.23357572070128   -2.39797933150281   -0.80749769991888
H           1.46376620191861   -0.93480479157533    0.71304545313679
H           0.01379652960120   -1.42041464987972    0.55253645932163
O           1.11624246385011   -0.03651610050344   -2.24409669489631
H           1.47835765903321    0.34270396194970   -1.36308895283877
H           1.25814915557923   -1.05110494602850   -2.18753241423041
H           0.03465881563150    0.10087703983513   -2.22172216491608
O           0.26619460321998    2.14424549940650    1.20384357166035
H          -0.02177430624386    1.58618914362933    1.96511674911115
H           1.30579677647627    1.34188548034842    0.49289286980357
H          -0.51645398870851    2.16683294284270    0.61360377135760
N          -0.74436383421131    0.29562987428407    2.90393000532322
H          -1.17416097553396   -0.09175768257055    2.06494154411221
H          -1.48645447670265    0.52736884785051    3.55173010151293
H          -0.18423997015980   -0.43614549303848    3.32336668960439
