    26
        -50.44849475  Gyration_radius:  2.4857316913 Dipole_moment: 4.246
 S           0.93735519693303   -1.17743065711984   -1.27076950041671
O           0.92463227729313   -1.15844006993255    0.17829907822896
O           0.54491711009238   -2.41410878540680   -1.88196518055065
O           0.19267202393398   -0.02401702696086   -1.80947486518374
O           2.45277385369889   -0.93237829179336   -1.68870600872823
H           2.53700261444526   -1.46264898558287   -2.47437811282093
O           2.09515976250720    2.55968657442749    0.55295579058001
H           2.20093064901719    3.35794323532841    1.07294993645661
O          -1.27785187665124    1.10121226438927    1.72931695672324
H          -2.13970252663746    1.45922212627887    1.94576575208022
O           1.54323339898674    0.56066337255081    2.12341811948353
H           1.47985167926719   -0.16373180975325    1.47031856108149
H           2.06424362322651    1.79629427471732    1.19592308272367
H           0.63305206978815    0.72451070405857    2.39909812625117
O          -1.52389357710198   -1.38287676565940    1.22505236737964
H          -1.41671785298328    0.10157918471579    1.57202519088696
H          -1.97549572178093   -1.51098647098940    0.35436795579427
H          -0.58579827009918   -1.53203419197133    1.00767695429972
O          -0.17852294400759    1.95384062193794   -0.41848521164247
H          -0.00774622998021    1.07901710286173   -1.05174539046838
H          -0.64796861050043    1.61853681739714    0.42834347043076
H           0.75010122342645    2.27103606291307   -0.12190670190613
N          -2.18776720566850   -1.67071682438990   -1.35657014358834
H          -1.28963342831276   -2.09638994486928   -1.58177942450753
H          -2.21131062685106   -0.79227656240949   -1.86090444115378
H          -2.91351661205969   -2.26550592473332   -1.73882635143275
