    26
        -50.44842319  Gyration_radius:  2.48739256061 Dipole_moment: 3.793
 S           0.09076800738193   -1.70392901786265   -0.96840894466404
O           0.80790427109419   -1.26705912378890    0.21963451266142
O          -0.64575773208351   -2.92420640318814   -0.80483957745781
O          -0.70746539189663   -0.60306674687154   -1.52122129603084
O           1.19989004572858   -2.00005564947163   -2.07155719248016
H           1.20998793963515   -2.95101841117060   -2.09803582558149
O           2.38097048773822    1.94653275683902   -1.37035201167146
H           2.80142863303808    2.80458356536329   -1.29437808186434
O          -0.22804174787919    1.90980336786656    1.47144149308782
H          -0.86599492519122    2.52071528467280    1.84234755032430
O           2.38784833341373    0.75447297596923    0.93984258578372
H           1.73230624671812    1.23256309695140    1.46174681452350
H           1.95370817475994   -0.08950706393527    0.70297186204653
H           2.56039498355026    1.45748652389508   -0.51810455961881
O          -0.90645903632259   -0.46099839514761    2.09030433683691
H          -0.20137527637790   -0.91144683341240    1.58762623777046
H          -0.51928491245835    0.97641683251724    1.77324369715377
H          -1.73051733082347   -0.74005019470203    1.61916642644970
O          -0.13535541336060    1.73855156066087   -1.07336802340794
H          -0.38326366936898    0.70956215422618   -1.29938301995929
H          -0.20101444638264    1.82994186903088   -0.05175732876365
H           0.85773421667398    1.85251742087254   -1.30812966720061
N          -2.76316170442493   -1.38985716100566    0.39647498655065
H          -3.63110342853246   -1.86406555894636    0.61622769976480
H          -2.11749803458107   -2.08338865530932    0.02123402619108
H          -2.94664828004952   -0.74449822405380   -0.36272671043679
