    26
        -50.44772989  Gyration_radius:  2.51301403557 Dipole_moment: 2.775
 S           0.37812168912022   -1.93928534402489   -0.74939499248239
O           1.80768765620343   -1.59334035671470   -0.66341812515986
O          -0.09239288098046   -2.56964683881050    0.46105261095114
O          -0.42348658365560   -0.81563857657886   -1.17856689143210
O           0.28952327574672   -3.02354408876765   -1.89683051670347
H           0.76885963459857   -3.74215576736924   -1.49860786750706
O           2.17339871855867    2.25099865136225   -1.35516422970246
H           2.38909938137611    3.16589259114655   -1.16808884597046
O           0.32983541073759    1.19589577232185    1.77111465773203
H           0.49319576890195    1.50068857899470    2.66500299592912
O           2.41291588099075    0.48866949490459    0.47066269267894
H           2.44883505069227    1.18020922403491   -0.28636815236045
H           1.59443091207365    0.73910703023260    1.03495022560219
H           2.17684202829849   -0.45679889323413   -0.01889180567247
O          -1.26523968543018   -0.74951123842048    1.98913943367432
H          -0.32025164037075    0.40041471693478    1.86715354556122
H          -2.03029672603439   -0.52391905844214    1.40802136625282
H          -0.83711375335429   -1.50758915066164    1.53808226250675
O          -0.35888528173358    1.84933209945931   -0.88343350793738
H          -0.36092695155067    1.84092895823916    0.08381655763420
H           1.17789852486304    2.17795581597737   -1.33897382730808
H          -0.44836800194591    0.91058260674574   -1.13719584635894
N          -3.00510649612752   -0.20610989605692   -0.01256910360855
H          -3.26304282182829    0.73505451908984   -0.28236919265652
H          -3.79545505498187   -0.80954208581224   -0.20010647174002
H          -2.24007806432818   -0.49864876410128   -0.61901697193923
