    26
        -50.44842378  Gyration_radius:  2.48746014287 Dipole_moment: 3.797
 S           1.46256498900195   -1.30760450307583   -0.03789592347495
O           1.47068796623403   -2.70631175228663   -0.35704351955523
O           0.94890636438690   -0.44946363689540   -1.09447190045446
O           0.80826949847953   -0.99802145272937    1.23910941459091
O           2.98547482287263   -0.89222558363764    0.16950697251987
H           3.44855947686252   -1.62391121518758   -0.22463544230464
O           1.43492719434460    2.93586625534981    0.80855642289290
H           1.24872360232969    3.86820995645892    0.93044794811166
O          -1.96117638161847    1.40683208140767   -0.19602259534662
H          -2.87457808399848    1.49182141596717    0.08013807126422
O          -1.67084882187482   -0.81485661460250   -1.39762657488670
H          -1.89865554571465    0.51989620982568   -0.70253262229954
H          -0.70685312564110   -0.74122927482198   -1.53168974866211
H          -1.75243988847573   -1.57977536513851   -0.77540297278054
O          -0.21292328602622    1.19285637306122    1.65067577119720
H           0.25604491188918    0.23110438880028    1.49076360452216
H           0.49688475511437    1.89910522921620    1.42295763447468
H          -0.94292688279600    1.27782715667310    0.93194410178843
O           0.53158834776625    2.15103478178547   -1.49923152372177
H           0.80533936991996    1.21202177061232   -1.48396831758225
H          -0.42681443451729    2.13168599123809   -1.39084883150289
H           1.23393546518922    2.72080498770654   -0.14593313878797
N          -1.31393801481145   -2.80360116960275    0.36209303553601
H          -0.35396658736960   -2.94703074255826    0.05131909213327
H          -1.76868211525746   -3.70869956806852    0.38460313396104
H          -1.24810358628435   -2.46633571949022    1.31518791836323
