    26
        -50.44849455  Gyration_radius:  2.48605247863 Dipole_moment: 4.229
 S           0.62308313965105   -1.14905535904283   -1.47298111949845
O           0.55283255398497   -1.38781456628008   -0.04519691972551
O          -0.07543572694269   -2.09167178798719   -2.29808391487746
O           0.25865841037228    0.24613479179654   -1.78185281450760
O           2.16239704107759   -1.27644398600258   -1.85400312520481
H           2.12664859830982   -1.67231207790064   -2.71862296950604
O           2.70629689360010    1.71196771942107    1.00046780377903
H           3.01061981404437    2.33980502641076    1.65772625101042
O          -0.99154355877036    1.09289241215139    1.91356177718533
H          -1.72610888941899    1.63738642142314    2.19945307250729
O           1.54077023032268   -0.29290353217210    2.17941114507491
H           0.70209961699032    0.07229246164117    2.48692455130035
H           1.30572516012219   -0.84031711484393    1.40461567879416
H           2.43158824398003    0.88730262037146    1.49188324801577
O          -1.90510229632656   -1.08365440235559    0.95796599309673
H          -1.39966133406613    0.22019674209799    1.57422506989767
H          -2.33507939319448   -0.91963495951445    0.08238613646346
H          -1.03828808386505   -1.45305318782413    0.70939194960543
O           0.40044959248929    1.96616977180634   -0.04808701626382
H           0.34520484511842    1.20677833032954   -0.83282658652844
H          -0.18252238301033    1.63342252405536    0.72610468448679
H           1.36636390553038    1.94602873492117    0.29442555177102
N          -2.50811665833828   -0.70406724143209   -1.62675923500899
H          -2.25871493729805    0.21972490184045   -1.95991616178803
H          -3.35427343557608   -0.98728770324342   -2.10678525841848
H          -1.75789137877362   -1.32188655967088   -1.93342779165654
