    26
        -50.44849472  Gyration_radius:  2.48584338451 Dipole_moment: 4.240
 S           0.81824364601682   -1.00280866905839   -1.48482930628644
O           1.01766623257318   -1.09204010968048   -0.05210914181726
O           0.42495123906783   -2.21817871363932   -2.13688205837544
O          -0.07397598255438    0.12457327405460   -1.81328235849656
O           2.23559594898730   -0.60833435423011   -2.09044422967054
H           2.24154529443505   -1.07521614958401   -2.91960229146780
O           1.97494826865993    2.67053237995572    0.46664928163950
H           2.10114265561907    3.43394327405625    1.03240808415604
O          -1.08159472856970    0.86658695970102    1.97889179214853
H          -1.92437634370523    1.13819326923783    2.34462030528020
O           1.79667704688801    0.52327035414588    1.92431626232212
H           0.92766148556221    0.59365027101698    2.33802510100855
H           1.68767693451757   -0.15395143471050    1.22807473766576
H           2.09073748281532    1.86157041154810    1.04047058806295
O          -1.23034936978636   -1.58487069681674    1.30568247117884
H          -1.79524811709086   -1.68421630418274    0.49978906897311
H          -0.32638824935003   -1.64276023458731    0.94639933998337
H          -1.17419306389639   -0.12652429509659    1.75857520664180
O          -0.37013173696327    1.95962566574908   -0.22278499339530
H          -0.68641962962480    1.52685492590135    0.65048972243853
H           0.56832765369959    2.32668240783642   -0.03425005166542
H          -0.23523172228216    1.14999892482775   -0.94498279169131
N          -2.24518421296047   -1.73475868079366   -1.17139033453627
H          -1.36299228313689   -2.07010187742235   -1.55591205645326
H          -2.40201186581067   -0.82621477960950   -1.59154105615027
H          -2.97707656311131   -2.35550583862054   -1.49638132148640
