    26
        -50.44842481  Gyration_radius:  2.48770315633 Dipole_moment: 3.804
 S           1.29942978150212   -1.14956142049905    0.91983602048125
O           0.59454140560391   -1.35748487903304   -0.33559628227111
O           2.72886581959853   -1.22359090290264    0.82088581518853
O           0.81753046572493    0.06746583944397    1.58430313149597
O           0.85978324553572   -2.34283968528008    1.87771706003684
H           1.64334737281176   -2.88207321887985    1.90002272358648
O          -3.02345503242503   -0.97106538488395    1.12139237434196
H          -3.96281602795769   -0.81551728059067    1.01082093070276
O          -1.36345599481745    1.42709548550501   -1.40315306936300
H          -1.48477589601175    2.33382207423747   -1.68755291644264
O           1.00133936512323    0.69526730448211   -1.98157401688839
H          -0.41549463359301    1.16466452834794   -1.68603193392611
H           1.67277606662896    1.15899458510105   -1.42200737742338
H           0.94557235334705   -0.18910828683750   -1.57235908732968
O          -1.40475618625360    0.98903182703637    1.11071294467242
H          -2.07641453278599    0.22170125783481    1.23210160762538
H          -0.43189093238265    0.57855429442787    1.34648994448143
H          -1.38993296933060    1.20082958091276    0.10507658942352
O          -1.92756390177624   -1.41859054386908   -1.19301605049246
H          -0.99961107093720   -1.57071112214384   -0.92329250680397
H          -2.67908031811902   -1.30897313535807    0.24683156155130
H          -1.92119194545424   -0.55779831087716   -1.62854039633592
N           2.72624495783116    1.50320606510429   -0.09732291179287
H           3.61942946770565    1.96473002632261   -0.22277540865416
H           2.91155417239534    0.54241139159100    0.18775894729724
H           2.26002497803652    1.93953987080754    0.68927229683839
