    26
        -50.44842468  Gyration_radius:  2.48745354056 Dipole_moment: 3.796
 S          -0.73119583115839    1.55989857235182   -0.93953075939995
O          -1.57553617284398    1.65581848931022   -2.09552074691848
O          -1.28989848697115    0.78151295773579    0.15505083130911
O           0.63410253531900    1.11365407086326   -1.24278216632439
O          -0.56533071222637    3.04427712334663   -0.38827260487518
H          -1.26345809958172    3.50659032409515   -0.84010147244587
O           0.61700689200291   -2.09980730309640    1.03739753590279
H           1.01338410949011   -2.95435273752850    0.86310219434436
O           1.72153742837162    1.24394961475516    2.61112741758001
H           2.22434150845689    0.98564934465738    3.38527119659255
O          -1.39059750771614   -1.79880457499461   -0.49370578610145
H          -1.11604134076390   -1.69012094041872   -1.43793659829843
H          -0.20240895643274   -2.03690598801924    0.42787895219016
H          -1.60112368932024   -0.88632860251920   -0.21865338323889
O          -0.57958178704091    0.03439998786220    2.61243009533385
H          -0.97077459139526    0.40208585458608    1.79467141958501
H          -0.37144898689231   -0.88266509283762    2.39719716623344
H           0.79215016938712    0.90154154231745    2.73968121211904
O           1.99944368817131   -0.04050413482455    0.43485811770484
H           1.98490764623332    0.54125062640562    1.28095241567807
H           1.46816391777638   -0.89028129131660    0.66241979096900
H           1.41588870929963    0.49008535833996   -0.30646695333119
N          -0.61700120509500   -0.93281925291412   -2.90869924274608
H           0.37576193907175   -0.73402734165001   -2.94571803350571
H          -1.07509264942603   -0.03361316888233   -2.76646154666316
H          -0.89719852672067   -1.28048342763756   -3.81818904167936
