    26
        -50.44849391  Gyration_radius:  2.48612951534 Dipole_moment: 4.213
 S          -0.74253656235560    0.41796403476227   -1.77612826541508
O          -0.65268249084055    1.59915346251293   -2.58489713374373
O           0.52074712762296   -0.17883525104143   -1.39002844749806
O          -1.60517272945353    0.60863121792022   -0.59564861123422
O          -1.48018989790020   -0.67605241844947   -2.66508739116953
H          -1.91652832147240   -0.14419296786346   -3.32266280158261
O          -1.02390176888849   -3.12146575120769    0.68490813175651
H          -0.94517552689210   -3.82384687256849    1.33240486787891
O           1.23600386758589   -0.30929268788989    2.05337296193570
H           1.41054213985908    0.06988561497373    2.91567129451911
O           1.34608778323724   -2.32223143170023   -0.03094922158457
H          -0.11161365855765   -2.96983680587089    0.30851453404683
H           1.11071259144578   -1.63591550590562   -0.68579674993370
H           1.66903719753101   -1.83208191928811    0.73500448467119
O          -1.21648733528226   -0.69699131019380    1.43686351192235
H          -1.40559986087071   -0.11818211652187    0.52977803906691
H          -1.25730792065702   -1.68178693444828    1.15528612310551
H          -0.24327906177054   -0.51782595486435    1.70400921155375
O           1.95095770079050    1.35511243752350    0.26417150801237
H           1.57075878126788    0.37247465200294    1.37004086434428
H           1.66633927299775    0.81273707899425   -0.49393538194857
H           1.32357955829683    2.11938194527010    0.23725003314061
N          -0.06691300308715    3.06463527130341   -0.17584111415734
H          -0.01343359728148    4.07413255562775   -0.24392079427909
H          -0.90056197188206    2.83457444319902    0.35208425320677
H          -0.22338233343680    2.69985523372408   -1.11446389661646
