    26
        -50.45156385  Gyration_radius:  2.67116327574 Dipole_moment: 4.837
 S          -0.74170751017140    0.47721176985741   -0.34187038547180
O          -1.60987947208192    1.51577454229443    0.13840513714134
O          -1.40628469989285   -0.75323368061106   -0.69688777279013
O           0.08069614832954    0.97881481023166   -1.52473857833280
O           0.33631344658325    0.19821593687021    0.71561887105553
O          -2.94478137684954   -0.75194021629994    1.49768163664530
H          -3.42292871935295    0.07191660525034    1.37231840071497
H          -2.49851545841336   -0.92900886953466    0.65020477887382
O           2.36715517334844   -2.18873271774768   -2.23645909341779
H           2.64733963727493   -1.46888830778178   -1.61191972211775
H           3.02217667721552   -2.21942946802701   -2.93565643791162
O          -1.61212945466848    2.47226907204866    2.63578723277683
H          -1.70667825784512    2.24152190510844    1.69026168852344
H          -1.09827663227184    3.28043390347192    2.66737341996535
O           0.07435296067437   -1.08348366176775   -2.91782470733183
H           0.14307197459284    0.17811308741906   -2.19845931441103
H           0.90848409452009   -1.58378068833213   -2.71118328965933
H          -0.61425863882903   -1.44755207196026   -2.34238470754988
O          -0.80873925821521   -0.05617415067958    2.89301236743443
H          -0.09960541663849    0.05012966901111    1.69286621312282
H          -1.05994381304986    0.87791076819568    3.06910785338215
H          -1.64185138703614   -0.48230634736196    2.57502423468185
N           2.93037073890292   -0.07330215275453   -0.67830822456520
H           3.72981033424094   -0.03760751495133   -0.05768882098671
H           2.09274689510477   -0.03607091660090   -0.10309956479355
H           2.93306200453639    0.76919873464737   -1.24118123498317
