    26
        -50.44772985  Gyration_radius:  2.51302512257 Dipole_moment: 2.776
 S           0.53998186335400    0.70823931441075   -1.91645587184849
O           1.02212505463182    1.96240756198606   -1.38873457888055
O           1.58753411148376   -0.32767866551179   -1.90216550222670
O          -0.68532323505274    0.24420977527078   -1.30599420861328
O           0.22206160165090    0.94532032248770   -3.44707437728121
H           1.04497800597406    1.31954578930538   -3.74283301903332
O           0.80027953137100   -0.16504531164877    2.00215209850932
H           1.30059370541948   -0.04935354881090    2.81143682402444
O           0.23573175539092   -3.39916430774713    0.12951203453183
H           0.20047093902678   -4.04386253571430    0.83776572970731
O           1.97265013575646   -1.53467644215998    0.19113954969871
H           1.54930650149893   -0.95380725560515    0.92222414843791
H           1.37117449933743   -2.36218085236994    0.11255645033814
H           1.84157108735592   -0.99770194101185   -0.74891994361606
O          -1.35976422578768   -1.41501556275896    0.69030720594272
H          -0.50917943641850   -2.75351866248305    0.28703872650637
H          -0.84633630332695   -0.96098011562113    1.37287409282669
H          -1.25349690500193   -0.86029738048058   -0.10632914024734
O           0.31258474739752    2.16381992244132    1.15672481125402
H           0.60624410987387    0.78918753123721    1.66091503689739
H           0.65896513873156    2.20144825886567    0.24019000122973
H          -0.66738723484973    2.19964445729504    1.04596493365322
N          -2.28626153511843    1.91087162080447    0.44194077542510
H          -2.80380345945947    2.69037708814865    0.05653498436550
H          -2.94146172837111    1.31814327831528    0.93643711523386
H          -1.91323869461089    1.37006767090853   -0.33720789673467
