    26
        -50.44849475  Gyration_radius:  2.48593244368 Dipole_moment: 4.245
 S          -1.96223256417040   -0.15499807665374    0.06133570372149
O          -0.94373254482172   -0.61277450503311    0.98509741916749
O          -2.96321658234486    0.71026064161501    0.61499157915213
O          -1.34326420282379    0.40807773525838   -1.15314102845487
O          -2.72212405134081   -1.46621570591638   -0.42278028241832
H          -3.61681915210981   -1.15835314175519   -0.52461277276633
O           2.37392520948708    0.33908365791100    0.29869700101075
H           3.08686939969797    0.96776272413553    0.17934121710528
O           1.05866926229608   -2.73659951280147   -1.62569797050690
H           1.85103051950056   -3.20118788774382   -1.89974664293398
O           0.64130876923773    1.34901646122943    1.86795599544184
H           1.72449700770981    0.76772904496713    0.96043634203969
H           0.14490552765057    2.07209981157291    1.41051130931432
H           0.02101017652259    0.59862077044602    1.82587449655770
O           0.94874179328525   -0.19676191075058   -1.75789548609550
H           1.52643519947081    0.04698857142903   -0.94741815352664
H           0.96581822044831   -1.21972740816962   -1.82185498412681
H          -0.08013687353328    0.07021775392601   -1.50247627170528
O           1.17999464658689   -2.22813578571568    0.92267325889442
H           1.83744847778219   -1.52491692051436    0.98996025870547
H           0.32109501136347   -1.78057026360191    1.05391009455063
H           1.06196029454474   -2.72060093530900   -0.62731595650414
N          -1.04924197312176    2.85417658432127    0.43131521633270
H          -1.82347914646466    2.21221084290483    0.59575948139581
H          -0.86534025424461    2.81580719149405   -0.56431468053448
H          -1.37412216061083    3.78879026275924    0.64939488618003
