    26
        -50.44842573  Gyration_radius:  2.48745610453 Dipole_moment: 3.800
 S           1.44038225324578   -0.82280150999364   -1.04711632012443
O           1.49100250783555    0.26204317521821   -0.07950624991443
O           2.31113498350201   -1.92506319178080   -0.75511759499226
O           0.05013115049822   -1.22195178471114   -1.29923126779920
O           1.94889601801861   -0.21065831501787   -2.42609793516294
H           2.80619101037159   -0.61204110721999   -2.52108944586205
O          -1.11626370722419    2.56957731449544   -1.86593284195197
H          -1.73443959673007    3.30215408654352   -1.86308059211876
O          -1.60044608721441    0.90187630533860    1.57912112888359
H          -2.33755215213409    0.66604647934404    2.14379148251004
O           0.41658795441193   -0.50112726772842    2.23415131175429
H          -0.80640893636438    0.34183940893090    1.89948433544446
H           0.29300342077081   -1.45284861326726    1.99388672480042
H           1.01024441397806   -0.17190391361161    1.53287644186375
O          -1.81027654062766    0.32331729541429   -0.89826752404637
H          -1.58404658170565    1.19524714758307   -1.39110677461842
H          -0.99555807813140   -0.35986373627807   -1.10301607387705
H          -1.75689087644850    0.53898649792024    0.10497900235003
O           0.34196384077016    2.63903702898718    0.28533273193918
H          -0.46779366098745    2.73250144103768   -1.12399593135630
H          -0.25604105030647    2.36920151468462    0.99262251290572
H           0.91642313109838    1.86237412781830    0.13180792821210
N           0.31400262877459   -2.91140977492041    1.06763536752763
H           0.46229267237896   -3.81971340119243    1.49133578963281
H           1.12826519461822   -2.70157593778522    0.49180020585221
H          -0.46480391239475   -2.99324323980870    0.42473358815309
