    26
        -50.44849464  Gyration_radius:  2.48582589482 Dipole_moment: 4.234
 S          -0.50568778112732   -0.18756172686100    1.89229687856709
O          -0.33271518489002    0.99043463739071    1.06604582424829
O          -1.78662966894880   -0.32463859530872    2.52278965112848
O          -0.11148462068370   -1.40064790691961    1.15198580630184
O           0.55851807266425   -0.04696158996115    3.06664203931075
H           0.09861828617175   -0.42991426039332    3.80644435792809
O           3.34817850036672    0.20759436572641   -0.00690809904981
H           4.10239204161496    0.34253405965503   -0.58286210412808
O           0.29417385408288    0.45958097801146   -2.35449596126660
H           0.08021471186010    0.15037962470266   -3.23563895095563
O           1.61502089869506    2.11275789749053   -0.37289896804739
H           2.79987891954678    1.04118059335205   -0.04613626933220
H           1.22590055767268    1.91319393511625   -1.23315720396450
H           0.93181659907056    1.85441668252983    0.27644990315020
O          -1.87035662213864    0.98450183905597   -1.11944985816261
H          -1.44523987397394    1.23416077474638   -0.27891384116586
H          -0.59594697679224    0.69227261525819   -1.91099573028731
H          -2.34561721515454    0.14868456476263   -0.88710924702017
O           1.38931875604927   -1.22724674898375   -0.77201455329921
H           0.72795204832187   -1.31645751261854    0.09431993323284
H           0.93736241863110   -0.57659103231153   -1.42181766635051
H           2.23268110225093   -0.75235658940547   -0.43447091301789
N          -2.80000496114225   -1.26870176724238   -0.00270374749459
H          -2.61697586176318   -0.92517466385429    0.93913416633722
H          -2.17984342619560   -2.05916399811830   -0.13361329955823
H          -3.75152458418528   -1.61627618582172   -0.02292212711351
