    26
        -50.44842370  Gyration_radius:  2.48740379756 Dipole_moment: 3.795
 S           1.26228549779387   -1.03462456217637   -1.08895976312337
O           0.96305911250588   -1.12592023016002    0.33179709144142
O           1.10018931600308   -2.26282037910893   -1.81255171122878
O           0.55522287313948    0.10205408452291   -1.69139957219165
O           2.80598309393907   -0.65925618840139   -1.19341619507540
H           3.19448076047817   -1.47900720346187   -1.48008920551875
O           1.76250338961059    2.60882938797697    1.19288627329134
H           1.69864252944806    3.37287823579340    1.76817814724644
O          -1.72164215879975    0.96542929087022    1.40312894587985
H          -2.63351977709936    1.25908245639073    1.40660669308061
O          -0.17672942758511    2.01127601133939   -0.33868019180297
H           0.16360841487317    1.18608942501602   -0.95093966124680
H          -0.82657716242820    1.60811363327949    0.34791392150613
H           0.64142924343749    2.32986302630533    0.19370909252199
O          -1.64904539566944   -1.47887547513934    0.70718219313116
H          -1.74324543332810   -0.02654114732393    1.15297278789085
H          -1.88749690793645   -1.59456473523094   -0.24604706725826
H          -0.67658506720980   -1.56263804794259    0.70328444946757
O           0.94794372339606    0.48631784201325    2.45368275847247
H           1.61150694117859    1.80199516184562    1.76200818578810
H          -0.00934682010196    0.59082536598106    2.51171557214522
H           1.08531719864455   -0.19187392719855    1.76227191330281
N          -1.71949528585242   -1.70756013150764   -1.96156052924666
H          -0.76772062585440   -2.07114774420145   -1.98596608502450
H          -1.68270699929632   -0.80702699673845   -2.42441164228810
H          -2.29806103328563   -2.32089715272750   -2.52331639116321
