    26
        -50.44849441  Gyration_radius:  2.48580205077 Dipole_moment: 4.225
 S           0.72950090855415    0.63116679248647   -1.71387153791432
O          -0.28306380154289    1.19703492570204   -0.84496313434979
O           1.84009941526179    1.48645385552216   -2.01724724934137
O           1.15715237851299   -0.68987755629202   -1.21697376674320
O          -0.00435425118150    0.34356333462804   -3.09603556849339
H           0.67714406901628    0.53165158575317   -3.73302962132437
O          -0.81289716148961   -0.40876868201123    2.23963643309812
H          -0.55902571054491   -0.71287739966980    3.11192632116628
O          -2.60117293631489   -1.95667903783794   -0.81142198800765
H          -3.31781375862458   -2.46881788499793   -0.43338192048288
O          -0.29927607175407   -1.96750012211266    0.27652595039377
H          -0.48080841187606   -1.35716835869306    1.07947166163514
H          -1.19397726126592   -2.06665773106131   -0.21342058493969
H           0.35337995361023   -1.40979227742520   -0.40084098903879
O           0.58289241855575    1.63652987656173    1.64397284714749
H          -0.25784924431450    0.42920305066182    2.05809203105969
H           1.51808677702232    1.37450530567680    1.45686592686453
H           0.20713126362246    1.75439002440475    0.75259020689385
O          -2.64119151335435    0.45603572933456    0.16127364013968
H          -2.75803373892730   -1.00455402064707   -0.55505736508577
H          -2.32899775051121    0.34825554389823    1.06800216019242
H          -1.88605879481692    0.85029620889836   -0.31786385659123
N           2.90594845777829    0.82703867203737    0.57716194104160
H           2.65669768485719    1.18931608339944   -0.34214061225693
H           2.96195897217511   -0.17909441137112    0.47166869225267
H           3.83452809754061    1.16634647315679    0.79906039268133
