    26
        -50.44849474  Gyration_radius:  2.48571727974 Dipole_moment: 4.246
 S           1.96602233074502   -0.08400979921650   -0.08194731461755
O           2.97548321475892    0.64320430663257    0.63159754852621
O           1.01437163394475   -0.80902435531264    0.73604010751763
O           1.26378212361819    0.75412112954976   -1.07158915712439
O           2.72880123460835   -1.19065396959047   -0.93330877513109
H           3.60751599855771   -0.83101104060127   -0.99700335797586
O          -1.08186077237076   -2.24836841992590   -2.24180365259833
H          -1.87733825817080   -2.65497267697990   -2.58918481138398
O          -2.35857905477941    0.14964030570141    0.49928164361700
H          -3.09362726186289    0.75768353814546    0.58761172431794
O          -1.04482242758490    0.23770284852226   -1.69486085409740
H          -0.00940813804209    0.46938353271500   -1.43140959241659
H          -1.03951684263538   -0.73125799717083   -2.02923966909130
H          -1.57863099155806    0.23358090131564   -0.82014447021959
O          -0.56459349596747    0.77922834899394    2.19358465475003
H          -1.68313331266376    0.41401862416852    1.21847653640777
H           0.07151017629265    0.09300782002404    1.92147832159470
H          -0.11618237446179    1.61727372053199    1.91975277798260
O          -1.06305498359636   -2.43992255334957    0.35260652578131
H          -1.73413756998296   -1.80816260841272    0.63861363079297
H          -1.02561287660668   -2.49826938431346   -1.27672318353670
H          -0.21037413470915   -2.00701230915118    0.55452281449439
N           0.99592324758711    2.67745744118066    1.12098269643736
H           1.79593476232326    2.04811998124283    1.07127408739664
H           1.30757296192852    3.53556295148182    1.56048019162619
H           0.75395481063664    2.89267968382710    0.16091153694455
