    26
        -50.44246361  Gyration_radius:  2.62800101708 Dipole_moment: 4.236
 S          -2.29017078074098    0.71586670104700    1.10049796302365
O          -1.35620626636591    1.85476634347854    1.00612302666716
O          -3.17178449615685    0.65532605860549   -0.04044686064366
O          -1.58848359476130   -0.50543444939536    1.40409225409738
O          -3.21111853904131    1.03340971017455    2.35803273610362
H          -3.82288585800804    1.67852833971596    2.01599290728858
O           0.74161695338383    1.65350361873446   -1.94578278825366
H           0.31587536576005    2.49244851051084   -2.13083779713528
O           0.85013008613851   -1.32214150896555   -0.02903554909269
H           1.73117450215404   -1.38672368812404   -0.46210167004857
O           0.93552912636105    1.12614029636185    0.55671841321346
H          -0.05343331592605    1.45400832857919    0.85279963435758
H           0.86522607081993    0.08838266555106    0.42726870130407
H           1.00566711761979    1.45743408804983   -0.40182293117016
O           0.16474843821238   -2.29361073142809    2.33768304930894
H          -0.49979310186024   -1.59378887861483    2.18094354184942
H          -0.33634419929178   -3.10814404973018    2.40539457604285
H           0.81131870368979   -1.84572186298249    0.79917841782758
O          -1.15178496635287   -0.10849362093629   -1.59855771776998
H          -1.96164720698363    0.16404160724335   -1.12360514977075
H           0.00968902592631    0.97261153033283   -1.95997859640822
H          -0.73408275412374   -0.78687446750500   -1.05013513202095
N           3.02491193484821   -0.73194723670023   -1.49837697024135
H           2.52814786007469    0.02327583492214   -1.95997244393584
H           3.36778955435724   -1.35724419294833   -2.21674419911504
H           3.82591034027021   -0.32961895597316   -1.02732742549016
