    26
        -50.44246339  Gyration_radius:  2.62802173209 Dipole_moment: 4.231
 S           0.12557269545455    0.08529554865562   -2.63545804515197
O           1.36348758373039    0.80142272817043   -2.82884757999792
O           0.36070943779388   -1.27962583782596   -2.12564704032938
O          -0.86642151233077    0.76915968617177   -1.84524829366379
O          -0.50503480247432   -0.11112435795858   -4.08265447106402
H           0.25458622031805   -0.31618178354581   -4.61962033692663
O           2.08267399681248   -1.26483040769473    1.06606351924598
H           2.72570359196932   -1.76455083233711    0.55997861853489
O          -0.80106755920660    0.79161522179415    1.09838669258555
H          -0.75539517102605    0.57772896211839    2.05760677005722
O          -2.97906899514656    1.33214599931650   -0.30835820900682
H          -3.20497502732773    2.23644799679973   -0.53268835728001
H          -2.33624391716213    1.05000193562254   -0.98890470509372
H          -1.70571137887239    1.05428013940971    0.82599392498143
O          -0.32250335888902   -1.51670142459519    0.21147312611679
H          -0.61439066424792   -0.55309784848448    0.50344323175499
H          -0.10900606052786   -1.45167051709232   -0.84842667815091
H           0.60340657135163   -1.59436929306866    0.62380363974164
O           1.69736048736839    0.98850399207985   -0.19320319331181
H           1.67680992712391    0.98019513106060   -1.17050235605631
H           0.81448006050415    1.26168656439471    0.09189701653745
H           2.06007159563186   -0.35680645403081    0.64859589281403
N          -0.04176591354519   -0.28875084345133    3.44220827354116
H           0.82741544271098   -0.61243647982060    3.02984661290240
H          -0.54429626797057   -1.10172374709427    3.77682141894966
H           0.19360302795890    0.28338592140770    4.24344052826183
