    26
        -50.44772979  Gyration_radius:  2.51303269962 Dipole_moment: 2.776
 S          -0.89304091537650    0.56424460446089    1.83036330813572
O          -2.13326300576638   -0.03034549606352    1.30204017606997
O          -0.11778885511812   -0.39565237169014    2.57972192578054
O          -0.14487056992449    1.25244461343724    0.80273812518997
O          -1.37457321184532    1.66733484131939    2.85574349522368
H          -1.77814875994786    1.12378540465983    3.52389630726919
O           0.49649309396350   -1.77215329084827   -1.13535480616809
H           0.70733655064106   -2.66525040771338   -1.41209558740128
O          -2.16786133579817    0.48151236898781   -2.58745996075977
H          -2.16988929319115    0.22905715811855   -3.51196136024306
O           1.76945943111147   -1.40015561698565    1.01350293017660
H           1.10529146791252   -1.13289658153028    1.68349510379824
H           1.01731912855112   -1.62723668808103   -0.25653720722544
H           2.30132895354720   -0.58286930187609    0.86165980782246
O           0.28142219786989    0.95222087002080   -1.82818973042927
H           0.62618681456340    0.05036894714335   -1.76926587736673
H          -1.25310900919609    0.82439172630917   -2.38194864569784
H           0.13955262529458    1.22171873344074   -0.90036726075005
O          -1.99114506285663   -1.30739523435528   -0.78023620719040
H          -2.19505391400469   -0.61426398013959   -1.50870739322432
H          -0.99865562469670   -1.53975617849166   -0.89001761966919
H          -2.08233179770214   -0.76515787267179    0.16163105155471
N           2.74144928682767    1.09290335872883    0.60255723254759
H           1.77735481751482    1.38397230139462    0.75908247615054
H           3.01776523950740    1.43621475642530   -0.30903460072246
H           3.31877173812469    1.55296332599739    1.29474430712266
