    26
        -50.44246362  Gyration_radius:  2.6279296759 Dipole_moment: 4.232
 S           1.46766548765386   -0.87351692697111   -2.01313679915120
O           0.52619874485797   -1.90706410461720   -1.54042585841697
O           0.91473104596609   -0.11034671527965   -3.10611598160320
O           1.97757306164167   -0.09552903116455   -0.91265509762309
O           2.70379073092483   -1.67585254348890   -2.61220212667956
H           2.38257021069316   -1.95425392533441   -3.46471673542771
O           0.22721491104134    1.01781291440332    1.17868961626047
H          -0.43821462127755    1.18088872474351    1.88476045720102
O          -2.59076479671244   -0.47233369886441   -0.36350377235319
H          -2.94421860901732   -1.02572352860634   -1.06218484701968
O           2.83497948051432    0.68219456087322    1.49609675587274
H           3.44743257173805    1.39687258434182    1.31370811113190
H           1.14256394677446    1.02909499422662    1.53024379847106
H           2.65869611692248    0.26554890928550    0.62925190598170
O          -0.41033865196816   -1.36153648852039    0.65291161022343
H           0.07053368802683   -1.66158296380408   -0.26977414547780
H          -0.03087390841118   -0.41022944820315    0.87645951547553
H          -1.35878182429416   -1.14924801614969    0.35476513576850
O          -0.79517988581173    1.08001184805833   -1.44804255823940
H          -0.21528590255813    1.31029975703378   -0.70907846340668
H          -0.21579161727919    0.70930468778493   -2.14277231627902
H          -2.01673095830315    0.20521131006580   -0.82287779440646
N          -2.06941366579665    0.99658735420557    2.57967382728400
H          -2.17705720154070    0.30364815305468    3.31015794758840
H          -2.58055198138398    0.66816598317872    1.76657603520272
H          -2.51074636240751    1.85157560975498    2.89419179963198
