    26
        -50.44246369  Gyration_radius:  2.62780278157 Dipole_moment: 4.230
 S           2.09619843556027   -1.39262211037483   -0.79717375956280
O           2.50253098707457   -2.00865313770395    0.44318868684256
O           0.83690467180656   -1.97084264156349   -1.30485396515225
O           2.03514301588763    0.04697403583649   -0.78069003881759
O           3.20090390766887   -1.78751966586475   -1.87158405169449
H           3.38656325444067   -2.69738482352967   -1.65935123120785
O          -0.26585569816951    1.51707260037383    0.32454786601644
H          -1.15252336663434    1.86830711078703    0.56613476080895
O          -1.89588439815947   -1.54294532764446    1.04342459448320
H          -1.89395385623090   -2.50084236361793    1.00136348783821
O           0.50948751829357   -0.80070520893568    1.73046647664676
H           1.27132733441411   -1.29105802578188    1.36309012380019
H           0.57864831790665    0.10032510700214    1.38592548846858
H          -1.01531841489269   -1.29070557353625    1.44433544111875
O           1.46782904869170    2.59243931908297   -1.36415169969560
H           0.23334383903467    2.14366986239970   -0.24085026269942
H           2.22486889482896    3.08692500753749   -1.04559089220817
H           1.73943896557047    1.65374875133995   -1.32993083189878
O          -1.03918496631939   -0.41454463113783   -1.09451536388917
H          -0.20080487669237   -1.07331232845346   -1.28338047496786
H          -1.54003062544758   -0.89334994374220   -0.35067643241730
H          -0.64209657165368    0.41673251860238   -0.59376837867599
N          -2.86129086889802    1.64310775284388    1.02120634876033
H          -2.85786324738420    0.65974230652770    1.27251060949269
H          -3.54864927352675    1.77023453876846    0.28866080072519
H          -3.16973204716946    2.16520686079611    1.83166271787735
