    26
        -50.44246359  Gyration_radius:  2.62792448056 Dipole_moment: 4.231
 S           2.30631169163998   -0.71807685920497    1.06471211553384
O           2.32146276097462   -2.12863755493920    0.75993610439482
O           2.50056992246687    0.10211884999951   -0.14674871993202
O           1.16812117397992   -0.26237923585298    1.82173501841809
O           3.58855008908579   -0.44417323112769    1.96549942250567
H           4.25690363023606   -0.98372329830765    1.55361537729442
O          -0.09305421616934   -0.47708539172088   -2.61408708216152
H           0.66523043699339   -0.73533398392133   -3.14098220716693
O          -1.43351278541735    0.31465693959736    0.56736165956565
H          -2.17879596988249    0.62618261362123    0.00575521234067
O           0.45091663297211    1.26204834691965   -0.80908131503763
H           0.24638474841243    0.72345039163868   -1.64661587064857
H          -0.27933715831737    0.91707330040542   -0.14056159618892
H           1.38642347095655    0.83403383139872   -0.47058947288459
O          -0.04585860710221   -1.92260055483121   -0.44173653429928
H           0.81854468426434   -2.11404801330043   -0.02720966525800
H          -0.53875556993256   -1.39057305473150    0.19808468323864
H          -0.13554271980747   -1.13711439475215   -1.86437427783739
O          -0.72561565852954    1.25660951405389    2.93907616904411
H          -0.96375417764035    0.79105100075187    3.74262163495942
H           0.08828117137910    0.81947674787956    2.61884652616214
H          -1.43258587791583    0.74901581303862    1.44655328707626
N          -2.91655406071435    0.95997046178635   -1.58249217813022
H          -2.91883996867463    1.92503929390690   -1.88905833147736
H          -3.84783957475996    0.58763307050304   -1.71957998005910
H          -2.28765408848916    0.44538541717219   -2.19067996945983
