    26
        -50.44246373  Gyration_radius:  2.62769888335 Dipole_moment: 4.230
 S           1.75608339081618   -1.49372711950640   -1.28566813870249
O           2.27434104842661   -0.13260947489571   -1.04753570269577
O           2.15617163832085   -2.40565110937952   -0.24108181873891
O           0.34469127686427   -1.46701372059136   -1.57478527945549
O           2.48116737217732   -1.99140705535149   -2.61126344611985
H           3.34660150289327   -2.23844883480115   -2.29909554984394
O          -1.57167256678573    0.06943607666362    0.05030702645869
H          -2.06399348353842    0.74793146566365    0.56528124097472
O           1.07504316332849    1.24674403027041    2.08646120579899
H           2.01586307935423    1.27780813804854    2.26873631425917
O           0.50062451763282    1.42588761186660   -0.40673001190436
H           0.76085161422553    1.54589750815069    0.56862675084548
H           1.27639388166329    0.77144687970116   -0.78417886319479
H          -0.36187400905180    0.83416100906517   -0.33395509685174
O          -2.08256952159388   -0.73569383150247   -2.42044298759374
H          -2.53933336958107   -1.56242880181160   -2.58473171264879
H          -2.01143266689058   -0.13142309593833   -0.80278714878993
H          -1.14427551635297   -0.97978152371905   -2.29345836346203
O           0.49465294908110   -1.22139928078720    1.46944747729227
H           1.13281552993093   -1.72964547073735    0.93072267342679
H           0.85182432937345    0.27640906262309    1.99527954387348
H          -0.30599994325509   -1.14125400622503    0.93288476951757
N          -2.13273391381266    2.07297007625936    1.75574822358365
H          -2.19079809668231    3.01443761725643    1.38769049140584
H          -1.22509949070920    1.97109637093197    2.19850967546013
H          -2.83734270579812    1.97625747881730    2.47601873708348
