    26
        -50.44246359  Gyration_radius:  2.62797162899 Dipole_moment: 4.232
 S           2.08825907684511   -1.21502670538826   -1.06314149556270
O           1.89084799254787   -0.92266037903193   -2.46250166869413
O           2.48944608450330   -0.01225921248238   -0.30766341060022
O           0.99546174205794   -1.89359567172189   -0.41397757474315
O           3.33931369909822   -2.19440190067997   -0.98542278467501
H           3.93696102827539   -1.82772987994075   -1.63022389380874
O          -0.00707520400356    2.61175922362846   -0.50098730235325
H           0.72986785945683    3.08758541458299   -0.88807912286275
O          -1.39378974950180   -0.47199137695710    0.55295417157010
H          -2.04230295244528    0.13827236697164    0.97126246414412
O           0.70152808701243    0.78817400824685    1.15772745700218
H           1.53211650216422    0.38753556410542    0.58928089417849
H           0.46365141378320    1.63304678048078    0.64491569786896
H          -0.11477516120813    0.16493760495131    0.94791059845101
O          -0.69461662006306   -2.87982399478409    1.40656964290317
H          -1.37769580246988   -1.34667391107271    0.99592752754924
H          -1.05566894018712   -3.66780113860693    0.99686489680507
H           0.05688607352950   -2.61520503935816    0.83989238444056
O          -0.33170301206739    0.43074948968821   -1.89667545765672
H           0.46231403821738   -0.04007699398128   -2.21843473030647
H          -0.76975305250329   -0.17168581520862   -1.27972515810020
H          -0.20307545112699    1.86172538880335   -1.13222950728314
N          -2.61805580629753    1.77154128659038    1.39205466845285
H          -2.44525454283738    2.08517908926753    2.33919336642285
H          -3.58745276882113    1.96312448156678    1.17256573630132
H          -2.04543454397087    2.33530134034267    0.77194259056382
