    26
        -50.46489353  Gyration_radius:  2.55382944516 Dipole_moment: 4.634
 S          -0.76496348236190   -0.29616507952644    0.10402711547876
O          -1.59391121365873   -0.87018028602086    1.25326138208604
O           0.45350323235249   -1.09064580215984   -0.05411247280963
O          -1.57340754134430   -0.31455868776565   -1.09838757816752
O          -0.41509388346752    1.10203345283282    0.44378649808228
O           2.04294545257936   -1.19172339264406    2.04747251177097
H           2.38653838999043   -2.08621727070548    2.07662232747223
H           1.52490645638014   -1.12589140989415    1.21517985157550
O          -0.76545464241203   -1.38332608287685   -3.37013590814461
H          -1.16193673487222   -1.03151623297483   -2.54067033627525
H          -1.00481479947965   -2.31050203822518   -3.40077104154728
O          -0.49710942892653    2.02514006658540    2.95049200760106
H          -0.40155570249706    1.78095529008039    2.00740854470138
H          -1.40373905748188    2.31664215686361    3.06099383337388
O           1.49541254468910   -0.38894463033171   -2.36510029139026
H           1.28965930585386   -0.73973395325424   -1.46762280355460
H           0.87175527750099   -0.86918096666785   -2.95050197512900
H           0.77868813911813    0.91186791575681   -2.24085473664491
O          -0.21748236426704   -0.61770401139609    3.34845429661656
H           0.69248232770322   -0.83081388424497    3.04307344371268
H          -0.24010180587508    0.35808003573619    3.44334770989694
H          -1.05240342753311   -0.81484568090017    2.13576473749748
N           0.06864183082162    1.71782711041336   -1.99799681690511
H           0.41191960278958    2.64170551667368   -2.24119013774318
H          -0.11170000938223    1.60359549581957   -0.94010718269411
H          -0.81277843621546    1.50410238882633   -2.46243295886127
