    26
        -50.44773009  Gyration_radius:  2.51303595438 Dipole_moment: 2.773
 S           1.27398907768651   -1.68530533721538   -0.00400665202896
O           1.59042771855570   -1.52213201912138   -1.40300404339097
O           2.17223898435563   -0.89288470280958    0.85377808462120
O          -0.11696829316448   -1.45701706998003    0.31605141498476
O           1.58240606681624   -3.19167748250693    0.36431175139268
H           2.47603631600423   -3.27132002912680    0.04836631690433
O          -0.04206989406298    2.06062967333073   -0.65183456102230
H           0.11311591636546    2.89351884408531   -1.09993479819392
O          -0.03581054696659    1.46556586231689    3.07960938552599
H          -0.37783251314505    2.29393493178125    3.41938640849315
O           1.65236857684175    1.47716138870501    1.17027914607615
H           1.92415628748847    0.43058362452502    1.02924111687395
H           1.01658535103029    1.72075009136411    0.40397555514946
H           1.07855074261489    1.49238760768088    2.02076861391605
O          -1.60293766015789    0.59966344511953    1.18516208949529
H          -1.16686253807699   -0.24275468505716    0.95317962293102
H          -0.74424979554409    1.07728818790214    2.49296006568243
H          -1.36444026177431    1.20265126106729    0.46737397980613
O          -0.02519689281883    0.29501589778164   -2.45706231450544
H          -0.88340476956036   -0.18250482861075   -2.36039040405558
H          -0.03235917774121    1.34391701799101   -1.39405516458419
H           0.64768709312312   -0.36548507288702   -2.18798150103762
N          -2.15901105694149   -1.20042443083545   -1.72293741258923
H          -2.99008722914755   -0.81104316684552   -1.29548850639143
H          -1.54876803199654   -1.51712799627467   -0.97064592252539
H          -2.43756346978403   -2.01339099254468   -2.25710226120240
