    26
        -50.45156354  Gyration_radius:  2.67125061801 Dipole_moment: 4.841
 S           0.47232380398871   -0.52833230423057    0.62349423912214
O           0.39313450659227    0.40792138996471   -0.59099866718668
O           1.83312842542354   -0.95390369212038    0.79765501370496
O           0.05190885206126    0.38554467102851    1.77022862075810
O          -0.48390147696609   -1.59884845763884    0.47714750283153
O          -3.62640597924957    1.35369515244141    0.64190827575882
H          -4.19734497470913    1.93515017897760    1.14671634729036
H          -2.83636524874927    1.89136312083033    0.37097779063520
O           1.06372912659531   -2.97261975551817   -1.22597074687871
H           1.83412019027781   -3.12459188373971   -0.67248099049951
H           0.36990459738531   -2.64359469572014   -0.62675355886136
O           3.80010832848927   -0.54119738108272   -0.96624633201593
H           4.30419743069367    0.23064122175767   -0.70499446912866
H           3.19411639782934   -0.73945058833825   -0.22479556237408
O           1.59326639843213   -0.69094603235322   -2.45314068360477
H           1.36732937478378   -1.63006789461030   -2.24347322914954
H           0.87865765348272   -0.02471861067089   -1.45405872455789
H           2.52233846648870   -0.58581601331139   -2.14893781733489
O          -2.28775387362509   -0.40581534385446    2.07551252435059
H          -0.94033202851788    0.13485502830684    1.99704877807537
H          -2.87490325191087    0.19819607063983    1.54722232307375
H          -2.08611079064282   -1.16156894712270    1.50446879060840
N          -1.35050822214639    2.68647556187018    0.12644015080717
H          -0.92830630891259    2.98761985383812    0.99688515569077
H          -1.29710682675219    3.45588029648143   -0.52985314096642
H          -0.76922459035040    1.93412904415985   -0.23400158014024
