    26
        -50.44246361  Gyration_radius:  2.62788466161 Dipole_moment: 4.235
 S           2.51417632810041   -0.67281328161015    0.44140026635309
O           1.90332936581926   -1.51643269722332   -0.60422420255015
O           3.20441955911459    0.46057838236318   -0.12585367357918
O           1.56192236841488   -0.36080209425093    1.47685674669637
O           3.63203183184703   -1.58337331776474    1.11358119627153
H           4.34500358100638   -1.54427934597334    0.48306340032388
O          -1.16200338410390    0.58707594555194    0.88290386451485
H          -2.07549419660933    0.72857500849388    0.54604044848508
O          -0.51824539737486    0.31481190204474   -2.58862187670129
H           0.08487074656441    0.06872417748078   -3.29221164008200
O          -0.53618335046449   -1.33246234248942   -0.62289316238123
H           0.53221663512114   -1.49775886787718   -0.56016645640655
H          -0.75432573800246   -0.60039024678307    0.09505779608338
H          -0.63392971609103   -0.81539767523523   -1.49275324791883
O          -0.46947705280803   -0.47084914154162    3.20998771245153
H           0.33029718085692   -0.59264631901381    2.66087385420815
H          -0.19352641331376    0.08720511512735    3.93907660087857
H          -1.16005516594209    0.27418184007481    1.81225439833591
O           0.88089637084840    1.58118272318831   -0.78614711976662
H           0.00456089727669    0.91753061287830   -1.98620511258070
H           0.37179386303360    1.45743667640270    0.02681449943439
H           1.78547874916590    1.26604878448892   -0.59077260872760
N          -3.27014493322209    0.79668063458230   -0.77496043638675
H          -2.65347317976860    0.83039421293023   -1.58046219136468
H          -3.85042425758557    1.62579878977573   -0.79856768001303
H          -3.87371470187126   -0.00901949560705   -0.88407138558283
