    26
        -50.44246365  Gyration_radius:  2.62786720727 Dipole_moment: 4.233
 S           1.17731799480537   -1.99361024325556    1.26840760853477
O           0.07487698589850   -2.51622338247479    2.03942394561894
O           1.02084309773294   -2.28386160125302   -0.17012031159737
O           1.47764179499996   -0.60116040855846    1.48590275740391
O           2.46406427613456   -2.81127072785603    1.72265872265734
H           2.13143065354031   -3.69985449821922    1.80739391843170
O          -0.03584274558595    1.56273514252470    0.18116450154042
H          -0.50333900403486    2.16596581316958   -0.43972554215582
O          -2.01059346763202   -0.82694283996016   -1.52956343857689
H          -2.19693342400669   -1.74738241047863   -1.72295983915594
O           2.38086580923484    1.89891125336445    1.21090329422166
H           0.80538127815986    1.95050095312858    0.50289417792896
H           2.49265609926102    2.21422595282490    2.10934843516148
H           2.23411600514204    0.93558049721152    1.29162084506739
O           0.49265950199509   -0.27319343130997   -1.46010725468611
H           0.38836827831278    0.48457431827968   -0.74311164309453
H           0.82233648582890   -1.14989448294529   -0.91672471931211
H          -0.47490533400187   -0.49435899877757   -1.68021642677264
O          -1.54678134395595   -0.65979266680086    1.03301547489640
H          -1.97948360549735   -0.76381737547678   -0.53224748942667
H          -1.04527847952113   -1.37946959436996    1.46470187711020
H          -1.00139705300268    0.13465984360726    1.11539494048576
N          -1.60558215646713    2.46620710354704   -1.80808095937381
H          -2.06199555648561    1.56242763277384   -1.87944973897499
H          -1.17594088519089    2.66456055841299   -2.70327225739840
H          -2.32448520566577    3.16048358288954   -1.64725084853450
