    26
        -50.44246363  Gyration_radius:  2.62788077973 Dipole_moment: 4.234
 S           1.13274266822494   -2.35891806345558    0.34869208219127
O           0.07450100801824   -2.41272263728598   -0.67862448973241
O           2.43136669280294   -2.12813950245964   -0.23715353553954
O           0.77036876234500   -1.46467302036058    1.41890386778160
O           1.18154868097418   -3.82007072580638    0.97581347922401
H           1.66340175998110   -4.31591346082011    0.32057558492001
O          -0.14631423433314    0.67710900027676   -2.56648439160808
H           0.04586918072355    0.08092169956645   -3.29240041889519
O          -0.29278043874468    1.23763236465998    0.92665722670425
H          -0.78607460166745    2.03281854486938    0.62282998240503
O          -0.60391689346327   -0.04838638287951    3.22086265082162
H           0.01154384032019    0.08184130814488    3.94431166483077
H          -0.51211400519373    1.00410359551057    1.85341968884714
H          -0.18570416647636   -0.71727392474089    2.64315540102655
O          -1.37190688087940   -0.44068314629631   -0.61038601778709
H          -0.80178998183591   -1.36105398315317   -0.58615989168593
H          -0.94405152970888    0.17941149853775    0.11868661154093
H          -1.05920803729887   -0.00385655436268   -1.47346833574396
O           1.75937545592625    0.38420779865054   -0.80792414290129
H           0.66279995658355    0.65409279391559   -1.97963514350995
H           1.34997445158562    0.66533611095331    0.02198111072152
H           2.11187038052744   -0.51329653744706   -0.64657688841409
N          -1.53700782608343    3.02304363914901   -0.65490561688161
H          -1.28567671427714    4.00361237114659   -0.65396062410942
H          -2.54339685675741    2.95965748007127   -0.74693728962332
H          -1.12542063129478    2.60119976360843   -1.48127259458138
