    26
        -50.44246367  Gyration_radius:  2.62782370088 Dipole_moment: 4.230
 S           0.86222650626306   -1.38162010937582    2.07756030037727
O           1.61928872512504   -0.12584510208151    1.91021117772820
O          -0.24228659617503   -1.21883952032916    2.99203550754573
O           0.52656565612503   -1.95782535173288    0.80023261239107
O           1.87383334583025   -2.38998708676609    2.77785707745714
H           1.85654596063937   -2.10950389087713    3.68803412106226
O          -0.63072118699501   -0.36985022715933   -1.39360429686308
H          -0.84802901628720    0.29971217044081   -2.08086905110781
O          -0.45393187212956    2.54854644855791    0.60452789381635
H          -0.19517343848431    2.95994298029856    1.43104799118235
O          -1.54717227607083    0.25455638352696    1.19842111175226
H          -1.16242884069620   -0.27088309130450    1.92754321671202
H          -0.99443825396059    1.74772549824737    0.86158455773752
H          -1.42643726897475   -0.27105620611193    0.39558317763156
O           0.56798155580488   -2.70176496542770   -1.76608897993287
H           0.06148493322172   -3.51542162370517   -1.78861440447434
H          -0.28049701365744   -1.19677523418963   -1.78750234345337
H           0.72158041653133   -2.51910552358264   -0.81788309839743
O           1.26565077594921    0.87191101837232   -0.29540153551166
H           0.54949643244949    0.25910008873922   -0.75428569136139
H           0.70866258018873    1.67064628041723   -0.00332825564526
H           1.50721906629158    0.39063600954303    0.64419047837353
N          -1.05120573451009    1.98592499381702   -2.62318624482274
H          -0.29544743561366    2.38384494112019   -3.16698121683687
H          -1.07313904766928    2.46628312206848   -1.72934073993976
H          -1.91962796320018    2.18964800748728   -3.10174334541192
