    26
        -50.44246360  Gyration_radius:  2.62799272935 Dipole_moment: 4.231
 S           2.42971132203522   -0.94093197314870   -0.42243091371120
O           1.63106755813712   -0.93038017131656   -1.66356148629276
O           3.21567828185985    0.26170276452669   -0.28557681183859
O           1.61302727106036   -1.27774460919755    0.71580332471139
O           3.46784490170158   -2.13254619987372   -0.60314936319287
H           4.12679751631600   -1.75513860164346   -1.17824057510428
O          -0.67914239900068    1.86363119660215   -1.77136676199261
H          -0.17243746294363    2.06727982531002   -2.55947231116103
O          -0.99836071908987   -0.01451419257611    1.21403863065630
H          -1.90933372282977    0.35412852938429    1.16701573701441
O           1.01535218563288    1.67938527550387    0.20487804551334
H          -0.03450585936249    1.94055551582630   -1.01108114990436
H           0.56089818522028    1.11135879724659    0.84228492037106
H           1.88295689278845    1.26079971515053    0.03844557281292
O          -0.26586503054851   -2.31132211550506    2.31128488478789
H           0.46282485299761   -2.11680198193636    1.68917494400967
H           0.14063643893770   -2.33101257481122    3.17933909540780
H          -0.96256367532025   -0.83022060677734    1.75702679146201
O          -0.75595004993736   -0.63881971295480   -1.21416050377990
H          -0.85457042030683    0.30731098985130   -1.57257765599160
H           0.28312043920434   -0.86676540691150   -1.41920480714325
H          -0.81646915060903   -0.49022789142451   -0.17831938195890
N          -3.18789705330529    1.28440777823576    0.34457181636962
H          -3.65132834190670    1.98421981475785    0.91035484585765
H          -3.90111886051546    0.75077917760331   -0.13694291158512
H          -2.64037310022120    1.77086663808075   -0.35813398531586
