    26
        -50.44246356  Gyration_radius:  2.62794468604 Dipole_moment: 4.232
 S          -0.18160047531261   -2.44099434640565    0.98820777340400
O           0.41278632294890   -2.44673878916151   -0.36268260991151
O           0.83173933322607   -2.39721106977755    2.01483578541432
O          -1.21315329367408   -1.44070466873517    1.09565092667844
O          -0.90190496547320   -3.85174344965669    1.13443896006705
H          -0.17708598723068   -4.44259727694332    1.31600069396755
O          -0.83832019813430    1.32214554114498    0.15047860475175
H          -0.64180684304251    2.14486079037716   -0.35202272672393
O           2.41843760503318    0.51136164879669   -0.98038532314923
H           3.10059892868761   -0.15114057636532   -1.10334160050527
O          -3.22067642336735    0.24097114136948    0.56282738332524
H          -3.66971090184288    0.35247548085532    1.40251451438437
H          -1.80298874832927    1.17844821761544    0.25212630812085
H          -2.60761630352705   -0.50905651192796    0.69529036724651
O           0.05749060875633   -0.32635537893438   -1.53010863960400
H           1.01538165954628    0.01309751929628   -1.50486560036907
H           0.13517254164482   -1.30073897311539   -1.06352303310130
H          -0.41420220258262    0.29033275388530   -0.82587062255210
O           1.39520554792965    0.12957259166734    1.38989165061928
H           2.14403097652432    0.43873937346799   -0.02177618221619
H           0.50910392415137    0.51081900951039    1.32003248046405
H           1.27208164131624   -0.78827134457705    1.70308259644617
N           0.39668545226363    3.12371631380748   -1.41994927016127
H           1.26659402412960    2.60431904180060   -1.35872390520069
H           0.58090333707133    4.06809262752435   -1.10548703725309
H           0.13285443929057    3.16660033448539   -2.39664151412643
