    26
        -50.44246362  Gyration_radius:  2.62793112317 Dipole_moment: 4.235
 S           2.07914165986361   -1.59414631928351    0.32348446650522
O           3.03917700832730   -0.67879558487000    0.89201562041494
O           0.99955810302798   -1.91211539376199    1.27826998674688
O           1.54142831933415   -1.20861331322120   -0.95654710123997
O           2.85299980260157   -2.96511726287092    0.09536422367432
H           3.38922620013201   -3.03917709056252    0.87918448183896
O          -0.83186655232122    1.04825429447391    2.29726820742438
H          -0.51967346400072    0.77051528744368    3.16024711524237
O          -0.64636111852415    0.74403218152088   -1.22579076158704
H          -1.47585515724367    1.26904331402812   -1.16066652335213
O           0.00023200107370   -0.98145659851268   -3.12809472555672
H          -0.59196183711353    0.25090607524310   -2.07163884391686
H           0.60685669597418   -0.73409925549677   -3.82805951672254
H           0.56702704875863   -1.25079486464982   -2.37829950521945
O          -1.12520709691605   -0.88352582270564    0.63591417351560
H          -0.89690910297275   -0.30241665577768   -0.20608739693052
H          -0.21764387887021   -1.42322385903472    0.87659684596848
H          -1.17391221039607   -0.18415748854762    1.37217942745135
O           1.26667030479865    1.30427613147190    0.76734408435216
H           0.91364378884341    1.18844599185846   -0.12560481146490
H          -0.01007489390256    1.27755185106177    1.77609074035331
H           1.99290261264859    0.65618625965758    0.85852475750224
N          -2.77355392788575    2.04671589713770   -0.21827328047491
H          -3.65473124643247    1.55101699759240   -0.16259046185591
H          -2.97274829537083    3.00961177654951   -0.45874130195662
H          -2.35836474338381    2.04108344123305    0.70791010929139
