    26
        -50.44246349  Gyration_radius:  2.62793415148 Dipole_moment: 4.234
 S           2.10016746058485    0.93067985138011   -1.30073179177178
O           1.04911862849869    0.46924218209992   -2.22841238411213
O           1.98702014431694    2.34354984504653   -1.02936178773111
O           2.17326908142919    0.08259084392428   -0.13815111871518
O           3.46834661456550    0.73761895851061   -2.08903455187326
H           3.48091503846065    1.48551669058247   -2.67886454598661
O          -0.21764373183396   -0.73232127982249    1.37522225753224
H          -1.09455063237319   -1.05968310587641    1.67826868599674
O          -2.27973161484570    1.02975575813940   -0.90160074712734
H          -2.35440061790451    1.55680502448490   -1.69908327485988
O          -0.20928454120413    1.91857344607945    0.41539157626322
H           0.58350608446964    2.18957759055076   -0.08836310694720
H          -1.57656952865839    1.47719545726976   -0.34956562489715
H           0.06035413996165    1.16221909352474    0.95449788965995
O           2.09395897529745   -2.01762668733788    1.51240494517341
H           0.50634876768450   -1.34511068713978    1.62404707550629
H           2.24595845442106   -1.35644124291322    0.80833256512517
H           2.73074916410915   -1.80874248380314    2.19794154067080
O          -0.62314802408100   -0.91779178127053   -1.10375301931916
H           0.16117043086617   -0.38932425084740   -1.63138986690041
H          -0.34987038094450   -0.89782706840346   -0.09187034124728
H          -1.39662517714890   -0.25860538306824   -1.12987989310214
N          -2.86682960618955   -1.17471011230403    1.52738295091295
H          -3.39171824376997   -0.99148245256275    2.37328563082324
H          -3.23335504135813   -2.02174647687308    1.11077487036488
H          -3.04715583434659   -0.41191172937237    0.88251205656103
