    26
        -50.44246342  Gyration_radius:  2.62792518581 Dipole_moment: 4.231
 S          -1.40193994071221   -0.56869786963744    2.16318628786314
O          -2.52385665253659   -1.27030998705989    1.58724611328138
O          -0.16485894072154   -1.37048697702028    2.09289588116769
O          -1.18388492652121    0.76439711611742    1.66168262382238
O          -1.71857374648714   -0.42248669798834    3.71526604243138
H          -2.10361232056925   -1.26592021213663    3.93382851265097
O           0.21216784538152    1.28889813149568   -0.87694049330385
H           0.83239361191200    1.32530238797590   -1.63977767177338
O           0.73862891021364   -2.18518665197710   -1.32377766149325
H           0.64482275188632   -3.07725327447890   -0.98506210506259
O          -1.50868003394459   -0.94424369897446   -0.85332056101433
H          -0.17268698848214   -1.77861737423946   -1.26425090625242
H          -1.97181482100976   -1.11980211987344   -0.01053475452884
H          -1.25430418866122   -0.01138797715220   -0.83104278163371
O          -0.08513603375761    3.11416539968460    1.01892766542253
H           0.21095617551742    2.12684924997835   -0.36756925841975
H          -0.82277784168503    3.72612988999073    0.99734234001692
H          -0.43601173147838    2.30090194553158    1.43298810979016
O           1.41939826788966   -0.47203211068310    0.45949336583747
H           1.33566797265255   -1.20558770034064   -0.23930557812832
H           0.91168515906453    0.32483628297332    0.00540569824917
H           0.77052108075250   -0.82088325399099    1.25338303739688
N           1.92478377881098    0.54899751026602   -2.81520272901843
H           1.65309000503292   -0.42288251351927   -2.70625076351885
H           2.91715407506217    0.61346243209951   -2.62448160796501
H           1.77686852237872    0.80183807294944   -3.78412878581953
