    26
        -50.44246354  Gyration_radius:  2.6279431883 Dipole_moment: 4.232
 S           2.18775154230805   -1.19535871487461   -0.86793323040138
O           1.22828784832468   -2.16467201529531   -0.30391482874456
O           2.02754970555599   -1.05784908784021   -2.29556433017795
O           2.17529288724043    0.03833890462816   -0.12356167390779
O           3.62170988829589   -1.84596490486991   -0.64209244797876
H           3.67301735431368   -2.49424783903154   -1.33815421574741
O          -2.21130165559217   -1.17663123624965   -0.89260279091095
H          -2.22615228950688   -2.02027681945094   -1.34796970911825
O          -0.32214475930924    1.40960248900531    0.61873247060566
H          -1.21615429137337    1.66541060284641    0.94009164763897
O          -0.27741651599328    0.22795201081507   -1.94052902644995
H          -1.56588924479626   -0.60827765920925   -1.40230324583301
H          -0.04195950213801    0.85119230799821   -1.23942565318999
H           0.55091260937011   -0.22883000478959   -2.18737542960612
O           1.99106765039724    1.85305352273874    1.82971644182173
H           2.19160409192258    1.10931870741693    1.22755931715598
H           2.56221753128820    2.56915804564488    1.54670866145819
H           0.38817279290018    1.77103723594844    1.19011231559945
O          -0.51011660793096   -1.06917047368839    1.02378339940318
H          -0.32521957562909   -0.04340092866033    0.91140913234410
H          -1.28990070687292   -1.21727067271175    0.38853401131095
H           0.30744803707581   -1.57258721630969    0.52267448554373
N          -2.96697503720632    1.37767838797778    1.10926979068970
H          -3.28327333706285    1.00858216360756    1.99757929838540
H          -3.10421982501970    0.65542091299775    0.40947434322738
H          -3.56430861055558    2.15779225135475    0.86578128687375
