    26
        -50.45156358  Gyration_radius:  2.67183637335 Dipole_moment: 4.833
 S           0.93189570491524   -0.13575451887308   -0.06525236758556
O           1.88413134128512   -0.27585053371837   -1.13146923212369
O          -0.47597158723803   -0.01044140541025   -0.66575056415421
O           0.83389569670946   -1.43246264454340    0.73216523803488
O           1.18049846299689    0.96907634166906    0.82875763534277
O           1.70952957344828    2.68112136749044   -1.16482320190504
H           1.56710798456792    2.22686903527260   -0.31508934907711
H           2.46708335514665    2.24830689205121   -1.56706715046747
O           1.34072286086537    0.07836662167100   -3.72565376503879
H           1.67683919703018   -0.10672424022799   -2.82624736966138
H           1.18312790481779   -0.77283405294402   -4.13643650141879
O          -2.01930726329158   -0.49974769494816    3.33097143936739
H          -2.34034448590673   -1.10650154774495    3.99999053002513
H          -2.22527300409723   -0.90920917391725    2.44969449608871
O           0.59704654887737   -0.47862387031812    3.01848091578973
H           0.73449281911387   -1.15168268534667    1.73733376636564
H           0.84680344669634    0.38672501304593    2.66252786708918
H          -0.37526963747545   -0.43065139372588    3.22082557561795
O          -0.36906721704826    1.68602494826582   -2.46233833392905
H           0.12653304114463    1.18496211001342   -3.14801112169211
H          -0.50731672926944    0.73712516803225   -1.44480562556178
H           0.30326928336622    2.28784253046669   -2.05922104633254
N          -2.30090927584867   -1.69446038416082    0.94070728715048
H          -3.19916567600308   -1.85271878701628    0.50082578425031
H          -1.79419345219122   -2.57183614283176    0.94247553283146
H          -1.77615889260399   -1.05692092226698    0.34740957098409
