    26
        -50.44721208  Gyration_radius:  2.51048580447 Dipole_moment: 3.930
 S           1.57171811966367    0.81830710178593    1.17434078259865
O           0.49059147592932    1.65718084307699    1.72330406016540
O           1.16518946548520   -0.57861041793477    1.15078987078446
O           2.07260995960572    1.29519614595532   -0.08259556799632
O           2.73530887862470    0.93212084730578    2.23593855941608
H           2.26453832507902    0.73780866100925    3.03937828144631
O          -1.26365047985082    0.49413874599738   -1.69678483624158
H          -1.69947169819799    0.83091757148834   -2.48110065116523
O          -2.98740601400768    0.25835136550463    1.60017057463051
H          -3.86492646633122    0.04077875343179    1.28202787152958
O          -1.28927984839678   -1.34901296332160    0.44691565829709
H          -0.39381143824367   -1.14720848090038    0.78953652762765
H          -2.38144039015500   -0.47459926577846    1.29745953040394
H          -1.30510944967879   -0.98538568981405   -0.44881988596753
O          -1.53297522348320    1.95894916837534    0.38070764477063
H          -0.61114588646933    1.89069899379753    0.95868183408816
H          -1.38433554234618    1.43014675762218   -0.48536497794308
H          -2.19495448174976    1.39795198609894    0.92771703065599
O           1.16252023745197    0.16387723251944   -2.30616420113675
H           1.36111533809422   -0.77698815804552   -2.07540712138850
H          -0.27476241015392    0.36638185162855   -1.96592183422596
H           1.61259620237355    0.67801120842923   -1.60545370467506
N           1.63700962912257   -2.23535251626049   -1.17344065770432
H           2.55487626168819   -2.65212962374659   -1.26261829690553
H           0.95749929612390   -2.98578453753095   -1.15442512985387
H           1.59769615012378   -1.76574555077478   -0.26887136090467
