    26
        -50.44246358  Gyration_radius:  2.62786234105 Dipole_moment: 4.231
 S           2.56895452270021   -0.32257951121343   -0.51537540564788
O           1.77061019717486   -0.26170734431948   -1.75514270308775
O           3.08670176186706    0.97467279363012   -0.15199673402348
O           1.85509879586054   -1.01653928607956    0.52627730204455
O           3.83224254438246   -1.22017733631271   -0.87476274796011
H           4.39269349405433   -0.61565850027162   -1.35200233090655
O          -0.96044411963367   -0.43708505515370    1.16723957101840
H          -1.92889661542911   -0.26385971628912    1.16133323402889
O          -1.07521249434936    1.96417328258792   -1.43312564554206
H          -0.63194316551061    2.40538208646358   -2.15987202886933
O           0.64354080348744    1.79043713209510    0.52292988201957
H          -0.45210840006780    2.03782459695337   -0.65479855645176
H           0.32681745789472    1.03686045976018    1.03982082578268
H           1.57775143356255    1.59889564366981    0.30777440122278
O           0.24985056774982   -2.69019534251148    1.85403920798835
H           0.91532103066598   -2.23763069457983    1.29870609317274
H           0.66042865874448   -2.78455580535808    2.71521726829733
H          -0.74843963469991   -1.31146376753632    1.55731386393168
O          -0.61972316940765   -0.55744237424539   -1.32528380568685
H          -0.69862517697155   -0.60987417424317   -0.28110615049794
H          -0.91822468185674    0.39563324066900   -1.51522771734388
H           0.44124553444658   -0.52455156367777   -1.53918242353668
N          -3.38246220619026    0.51079498161013    0.47989839578950
H          -2.95564757773995    1.21630058410213   -0.11196626380570
H          -3.97661165737818    0.98817476666652    1.14603482046952
H          -3.97291790333716   -0.06582910640954   -0.10674234241770
