    26
        -50.45156369  Gyration_radius:  2.67150103077 Dipole_moment: 4.836
 S          -0.49497704520904   -0.66542739287831    0.45022367924185
O          -1.23538371580965   -1.83641359791418    0.07115793626225
O           0.60281685028071   -0.90811222100940    1.35455152060400
O           0.02118813664244    0.03150821456015   -0.81705144813600
O          -1.42994902632071    0.38352492062140    1.04387281661254
O           1.10637457328224    3.36950807102511    1.68496952272889
H           0.61409649025578    3.27313601511310    0.82764452335107
H           0.84426667813516    4.21104911000486    2.06182210911478
O          -1.31054298499105   -2.86634855226242   -2.39562183887501
H          -1.39708187153335   -2.59092538331296   -1.46134919949369
H          -2.10560578663615   -2.56939077739187   -2.84041449241287
O           1.46252960086413   -3.05495262067336   -0.00096873470004
H           1.31009942098337   -2.32617490565213    0.62693761763753
H           0.68889090422832   -3.62076710279213    0.06512870943844
O           1.07882606890173   -1.69560422709011   -2.23687825352401
H           0.28117961645741   -2.17607554319249   -2.55235208167119
H           0.52055745648650   -0.66484616467517   -1.47458945172406
H           1.44911934800138   -2.26959821446846   -1.52266715221904
O           0.04428233382851    1.25733809090561    2.84834083594414
H          -0.90731830925456    0.82644099104017    1.83749268960118
H           0.63802650021150    0.50660028772776    2.70075688755144
H           0.50916456953329    2.05963234738966    2.48908312947319
N          -0.41080264374676    2.93874970385273   -0.49056437779865
H          -0.17977904926375    1.96950474349108   -0.69294046669303
H          -0.31133290913747    3.46340427461919   -1.35097798698750
H          -1.38864520611577    2.95423993293194   -0.22560649330453
