    26
        -50.44246357  Gyration_radius:  2.62801839996 Dipole_moment: 4.231
 S          -1.95852544751889   -1.71135882313927   -0.45313980583178
O          -3.03157514410478   -1.10434110813574    0.29707469418508
O          -1.63053124481676   -0.93064665118081   -1.66185199482030
O          -0.77115270313877   -2.01623914258726    0.30416417948645
O          -2.52166509118922   -3.09859371381313   -0.99080712927869
H          -3.41348190301673   -2.88115402819051   -1.24546854782823
O           1.26145967411234    0.01858786265260    0.94047286682897
H           1.92748138236153    0.74265601319103    0.93384777797498
O          -0.58326606600089    2.44768116416841   -0.85880335683795
H          -1.34332948791803    2.66029250206671   -1.40325431745674
O          -1.42133117530820    0.87816996395965    1.05030578749121
H          -0.62759215472788    0.39072481073168    1.31060706007856
H          -0.95040511083024    1.96988696754500   -0.06101243225820
H          -2.09676764689687    0.20403083709279    0.83812885036363
O           0.52267242482302    0.21303762931186   -1.45971213993919
H           0.17251535277117    1.16425732037866   -1.38161181543865
H           0.84042643880581    0.01344775120107   -0.48096202950231
H          -0.38200769985687   -0.36550655530983   -1.59988140902089
O           1.74188992501333   -2.58486947504907    1.01378804730038
H           1.67806050381239   -0.85914738523016    1.07309697698619
H           1.65472950944109   -3.07641668412879    1.83227382560803
H           0.83751403178513   -2.53367129729900    0.64569050782843
N           2.48807723750079    2.35764160052029    0.42826890885435
H           2.83070168428305    2.95453974381794    1.17056335562374
H           1.61883254903785    2.75728580090495    0.08921028517076
H           3.15727017158550    2.38970491651798   -0.33098814557262
