    26
        -50.44246350  Gyration_radius:  2.6279957326 Dipole_moment: 4.234
 S           2.12637922369192   -1.40596728321321   -0.68582824521529
O           2.34275481603147   -0.93509096928631   -2.03272583203292
O           2.46046128732365   -0.37124169394535    0.31216842295638
O           0.82549531720079   -1.97054717654113   -0.43067562471398
O           3.18093888596520   -2.57291285555123   -0.44771147209556
H           3.96773561954386   -2.23698642685399   -0.86661196687907
O           0.45022118000678    2.61900953949873   -0.10124344210223
H           1.31636177048566    3.01197253033912   -0.22231345484767
O          -1.53859677838138   -0.30350149129853    0.11908445126622
H          -2.19290958792001    0.35192993251682    0.45107315770498
O           0.46366011061543    0.53643671077881    1.39573337618422
H           0.47657155779540    1.45921317076671    0.96928669916785
H          -0.33962404117305    0.07671272459810    0.90363260630985
H           1.35788102741805    0.07426659566004    0.99591768930260
O          -1.39282670405477   -2.86958321974346    0.75802450824423
H          -0.49190751781280   -2.66676264094966    0.43681598946398
H          -1.74815545876472   -1.21292403640095    0.42020500760896
H          -1.72877268944765   -3.54158149088570    0.16246478566750
O           0.23607679970968    0.68189304490396   -1.83666707468124
H           1.02181864321494    0.12973985240206   -2.01943712961909
H          -0.42067062048913    0.09228416230155   -1.44112812506194
H           0.33557982453325    1.98271681745860   -0.86369155838266
N          -2.65001034819702    1.99955882834493    0.95430005456602
H          -1.86968066469251    2.53047802838811    0.58088337319087
H          -2.69189576317258    2.17526399030535    1.95065328705227
H          -3.49688587943608    2.36562337639930    0.53779049694228
