    26
        -50.44246366  Gyration_radius:  2.62801594445 Dipole_moment: 4.237
 S          -1.15600174460971   -1.49389867590977   -1.84399980320812
O          -0.10356061861629   -1.57289691541630   -2.82825757396761
O          -0.83193671511587   -2.27959264801572   -0.63733305512500
O          -1.57733244646352   -0.16064991529593   -1.49620438419396
O          -2.42025840194216   -2.21533639863071   -2.48551557856367
H          -2.03632484246503   -2.97287527418841   -2.91696663263418
O          -0.09623805133299    1.51072505922610    0.42214117182706
H           0.38842030513228    1.88732069059770    1.19107616132097
O           2.20949283417410   -1.12147913907675    0.96398799542144
H           2.47929386005590   -2.02321652385932    0.78129379173844
O           1.47660804730407   -0.06406795360043   -1.30620749846839
H           0.98604790170655   -0.62024569212686   -1.94321241676932
H           0.87016750336655    0.64201826257676   -1.04322608131484
H           2.07258246878113   -0.69626311398056    0.06955952767916
O          -0.32105185941040   -0.84718989761022    1.27892577954484
H           0.67736776035559   -1.03107269220147    1.33296776514893
H          -0.34574872647265    0.12854888091588    0.89701656382599
H          -0.64039686935201   -1.48961873856703    0.46738814337565
O          -2.62071266625732    1.95705593257079   -0.24308961459930
H          -2.41679605062628    1.11135585103017   -0.68930921320171
H          -0.99061114769710    1.90147124851589    0.32736443199441
H          -2.83974472352836    2.56893445930220   -0.94790269911877
N           1.60286509945377    1.77699754658914    2.49060078671443
H           1.25712016806672    1.58826378026431    3.42339417425937
H           2.25010474900757    2.55301351149490    2.54950923053534
H           2.12664415648675    0.96269835541109    2.18599902778682
