    26
        -50.44246346  Gyration_radius:  2.62800409586 Dipole_moment: 4.232
 S          -1.19200990843241    2.33888226493652   -0.27623815044342
O          -2.45066366359451    2.08352056201454    0.38196049507342
O          -0.07804831323257    2.41015767092905    0.68934742762337
O          -0.87519472593248    1.45325653973593   -1.36773367905209
O          -1.30231737831798    3.79965565016039   -0.89619716656709
H          -1.75226500552030    4.28745669092433   -0.21284677256146
O           0.26066308665423   -1.22947734746790   -0.94462033599088
H           0.78499876414694   -2.01631002262526   -0.67280466301868
O           0.30793556196620   -0.67650354829078    2.55372652798874
H           0.14790921621860   -0.08389487766850    3.29029674380641
O          -1.70134191688961   -0.41712923572356    0.90872837298769
H          -1.33488375532321   -0.68979867676769    0.05620493991699
H          -0.53408012700199   -0.66784696582650    2.01491407150911
H          -2.07874104613712    0.47387907886026    0.76966006719657
O           0.40854542626058    0.06041587307663   -3.25311079813800
H           0.01615042879441    0.72276479749108   -2.65044212285962
H           0.41974677405242   -0.99136227601669   -1.88249953719617
H          -0.24954278553661   -0.08251278412795   -3.93547662561817
O           1.39747694103429    0.46524410885976    0.53181179603697
H           0.93926618526058   -0.16113352834253   -0.17283056021984
H           0.81008238579850    1.37537230074472    0.54334749387950
H           1.14345003888642    0.02151036098599    1.41041754720118
N           1.62692282636124   -2.99599209527851    0.55528261773133
H           1.25666752510571   -2.58479328407144    1.40619606245444
H           2.63566050020074   -2.91445234862842    0.58867396651879
H           1.39361295517901   -3.98090888787686    0.56423227173124
