    26
        -50.44721205  Gyration_radius:  2.51048260419 Dipole_moment: 3.933
 S           0.29476925850972   -1.98200968605502   -0.70912290658158
O          -0.24744810446941   -0.87308180273985   -1.47950845774953
O           1.69957028118582   -1.71677385506738   -0.34877607086465
O          -0.51493259687141   -2.35475896913204    0.41498378709118
O           0.36671319458868   -3.21932023990721   -1.68792710493528
H           1.02878036869569   -2.92278657013078   -2.30321270467929
O           2.81986452314236    1.86288399339320   -0.36298083496842
H           2.99643347294342    2.75740837899681   -0.06752613805366
O          -0.08488289275920    1.12673413273426    1.85533335185646
H          -0.14851501273409    1.46888034686052    2.74832206930398
O           2.15913612055752    0.04043950271583    1.29119127556344
H           1.24743309098814    0.41875779371406    1.56967465878189
H           1.96622885152003   -0.79074044605047    0.61267014428666
H           2.56997132377384    0.75305863414592    0.67832873038584
O          -2.00739252861011   -0.48086168880467    1.56097403545121
H          -0.87774847703551    0.47261036311977    1.75504149954508
H          -2.48399253848639   -0.16832062505766    0.75287231021614
H          -1.54333771268033   -1.28926388950796    1.26259317056474
O           0.27432326851186    1.67631018252619   -0.89458962741305
H           0.09469745412265    0.77048912957354   -1.22202536660277
H          -0.08068477863993    1.69499644065043    0.00455397909066
H           1.89335266277867    1.85985897182499   -0.73406108980817
N          -2.86385181109684    0.21493460672629   -0.89810081806261
H          -2.87722510594317    1.17023160271188   -1.23341397915010
H          -3.66026829365393   -0.26408058982988   -1.29855587168735
H          -2.02099404885233   -0.22559569669957   -1.26673803082243
