    26
        -50.44246363  Gyration_radius:  2.62796158564 Dipole_moment: 4.234
 S           1.65733673752542    0.35799016972387    2.02330866502276
O           2.10061423317628   -0.74549701259192    1.14920139697105
O           2.27315965519023    1.60964620806887    1.65329415464803
O           0.22098382254075    0.38570471971437    2.13418313898096
O           2.21616070620818   -0.00256568309034    3.46838609225132
H           3.13514405466329    0.24073612762454    3.40734767550942
O          -1.54673120497667    0.18985195768676   -0.21299210713937
H          -2.00915225096807   -0.05169982758570   -1.04711016995400
O           1.27238920394355   -0.14362111535576   -2.33015630355140
H           2.22460369289124   -0.21094473590396   -2.42020619082940
O           0.32573883868259   -1.48820079690971   -0.36190056850877
H           1.08595595066406   -1.23603753634029    0.36712166494112
H          -0.46871813777205   -0.82734376310234   -0.18607794358262
H           0.71612660604956   -1.12818834676815   -1.22881553703662
O          -2.35650994760736   -0.31001206396155    2.25862797669212
H          -2.09090380664526   -0.01144187466702    0.57752410204144
H          -1.39333453167292   -0.17621133104972    2.36049028214709
H          -2.76497438370137    0.37688984604124    2.78821087322531
O           0.79814896888121    1.71504619306571   -0.56088862766123
H           1.11345173761034    0.66387476255990   -1.76247713246699
H          -0.07677180368527    1.48609885101080   -0.21809922602909
H           1.38631072503899    1.78008082198902    0.21731443143174
N          -2.00523403012769   -0.55709418648029   -2.75642352967321
H          -2.58937212628274   -0.00983023067735   -3.37605028956879
H          -2.18624898287434   -1.53602495514028   -2.94150065644854
H          -1.03817373674968   -0.37120619785972   -3.00231217141851
