    26
        -50.44246364  Gyration_radius:  2.62796025846 Dipole_moment: 4.234
 S          -0.93711145450734    1.88326672818818    1.59490711894853
O           0.21019770560811    2.75325373692020    1.69297679295910
O          -1.55681320609715    1.94925135308363    0.25703827644988
O          -0.71196320890497    0.51732583268435    1.99447556120168
O          -2.02849760724152    2.47238099426111    2.59107605335000
H          -1.95204673514112    3.41251108263069    2.45779151287958
O           0.53734341892956   -1.46325312112658    0.20883806389249
H           0.80356758651186   -2.05041307003908   -0.53433466862422
O           0.74958468064274    0.96261024156389   -2.36236803175850
H           0.56574632296722    1.85430269213916   -2.66310728475791
O           1.60537778970651    1.14289088015772    0.09625953554041
H           1.40036958375318    0.27623637044071    0.47347932718876
H           1.20779074127215    1.06672035462728   -1.47987229224232
H           1.19091490457766    1.80160060982533    0.68794394570354
O          -0.91638804005146   -2.12743425978276    2.32072894243642
H          -1.01897449161621   -1.15622089765361    2.27378002741004
H           0.08693310812886   -1.96075859937227    0.92380293868229
H          -0.50021976295737   -2.29744594146225    3.16750854718268
O          -1.17296469638353   -0.09353031130975   -1.03327778752286
H          -0.54458395431978   -0.67650830205226   -0.42987482480523
H          -1.43292202944208    0.77294540070581   -0.43772605719147
H          -0.52213769764576    0.28799640945438   -1.71475037479485
N           1.17230198599346   -2.33958702132040   -2.25408940254495
H           2.04066759227962   -2.82552428375217   -2.43970222788543
H           1.27781815843673   -1.38548565923340   -2.58390409148917
H           0.44600929551162   -2.77713119960009   -2.80759960017603
