    26
        -50.44721207  Gyration_radius:  2.51048345544 Dipole_moment: 3.933
 S           0.92969336190845   -1.21297542621256   -1.47742293257045
O           0.18005859799251    0.00903406900004   -1.72623047409068
O           2.14979678060301   -0.91697302650081   -0.70446750282158
O           0.14238610603055   -2.26742070666101   -0.90605017338908
O           1.46256708536341   -1.70904180124090   -2.87890302036896
H           2.07474120024791   -1.01351934628344   -3.09417638097907
O           2.18597638812391    2.26915312408848    1.27509574192245
H           2.06358203486041    2.88798523008246    1.99668680938143
O          -0.61032498401370   -0.06019779910420    2.08391817912808
H          -0.86853467986105   -0.25904184228010    2.98520955404523
O           1.89948624377416   -0.23772225063701    1.63317350821160
H           2.03042220363090   -0.60557040853298    0.61525595581698
H           2.15278322856763    0.75346343608038    1.55883461986756
H           0.89249126724771   -0.24384329979656    1.82763313172383
O          -1.94382067939833   -1.60075478138156    0.59560493038942
H          -2.39754788141621   -1.00625818529560   -0.05138681575299
H          -1.23656453521915   -2.02553643640373    0.06903908684270
H          -1.16523417157833   -0.69942491665800    1.49215462137175
O          -0.12293526806901    1.91190285362183    0.11798295396701
H           1.34660794252622    2.28651684101374    0.73541860942896
H           0.00336522120537    1.29980293291618   -0.63659729887750
H          -0.56517239557183    1.38619002643057    0.79836285713651
N          -2.68673668503585    0.10908463924718   -1.35094075690829
H          -1.71747402213117    0.09801007261255   -1.66829689990839
H          -2.93730745436394    1.07470516523984   -1.17770760358270
H          -3.26230489615914   -0.22756814415867   -2.11219070992649
