    26
        -50.44246351  Gyration_radius:  2.62799538307 Dipole_moment: 4.234
 S           1.16419945798223   -0.55534699626180   -2.30309646838523
O          -0.08229561915400   -1.32581883283853   -2.12729082409442
O           0.93362591969811    0.67062893831276   -3.02867280652353
O           1.86392192355920   -0.41007862862323   -1.05194483000021
O           2.08554621441773   -1.45723297726952   -3.23485695924781
H           1.71826391404853   -1.31195341740714   -4.10168268455937
O           0.50992370758849    0.42112320636327    1.42660499321694
H          -0.08740807643241    0.53787836230787    2.19958666358292
O          -2.58836445528352    0.53998330220584   -0.28542105667597
H          -3.08036099522648    0.40386371886516   -1.09705158810623
O          -0.34435344532153    1.70414510498862   -0.93336143027530
H          -1.80744072344885    1.11080492312119   -0.53786911973260
H           0.25272264686110    1.46737997353182   -0.21028111128420
H           0.10396099466052    1.42838229228714   -1.75716591155930
O          -0.86023352465321   -1.29423028919716    0.19194556985695
H          -1.67435540425200   -0.69955253372012    0.06158890538505
H          -0.47434164702359   -1.39770271505417   -0.81484416061439
H          -0.19539081764442   -0.65329950211568    0.68790295012446
O           2.85153963761221   -0.81610702158237    1.39805224023752
H           1.36585378746719    0.01805261113480    1.68454017801862
H           2.57659170687150   -0.83366601618811    0.45993927550862
H           3.66905211351921   -0.31553336164504    1.41312272445614
N          -1.70966945879366    0.66314055093048    2.92716380781756
H          -1.85235899197256    1.45193276333480    3.54528963780481
H          -2.06520066340952   -0.16404698290631    3.39051025829036
H          -2.27342822165635    0.81725352742460    2.09729173676445
