    26
        -50.45156378  Gyration_radius:  2.67161745436 Dipole_moment: 4.836
 S          -0.34799558742431    0.75400164744807   -0.45031322252366
O          -1.10497799940390    1.91811075511271   -0.08291593424706
O           1.04388976662072    1.15569895506632   -0.92819027436097
O          -0.04055872052171   -0.06164724069572    0.81391272021465
O          -0.97651766813066   -0.09230136447626   -1.43547752433043
O          -2.18251357265341    2.34427945245846    2.32730711664726
H          -1.82741111461739    2.33636255525890    1.41626518661695
H          -1.60461267889745    2.91257961467999    2.83839536173094
O          -3.37803745232087    0.02569778288468   -0.25143269386056
H          -3.54530440683725    0.97077543688844   -0.29490228924852
H          -2.61059181520121   -0.13287607759074   -0.82983675622812
O           2.66767358016420   -2.40915213870625   -1.57890165282420
H           2.73209603609511   -1.95594808009894   -0.69743544329714
H           3.56471040009498   -2.52962840415514   -1.89461025004829
O           1.32061877197207   -0.48720701836527   -2.77696979761091
H           0.37763738226301   -0.69630936383417   -2.70648734612130
H           1.27313238781734    0.52056434954336   -1.73000705631370
H           1.81156921595034   -1.26929471329619   -2.40822208683103
O          -2.15665248322765   -0.30872654374096    2.07008508423708
H          -0.93192462562913   -0.23013833902919    1.40045515042743
H          -2.26519794665001    0.60622471468823    2.41314625918003
H          -2.77950908731786   -0.36295386053366    1.30462324085033
N           2.78075730478411   -0.93703972537217    0.66640053888651
H           1.79565271663261   -0.72543190753538    0.80276912327968
H           3.24141528643297   -0.05670766736420    0.46811024634723
H           3.14265232026179   -1.28893281935843    1.54423229932059
