    26
        -50.44540625  Gyration_radius:  2.7591846676 Dipole_moment: 1.144
 S           1.67065527831653   -2.24284423406305   -1.19928360880588
O           1.75764887292031   -2.42320814494348    0.22271687721351
O           0.34075950883393   -2.76871732985427   -1.72104918094082
O           1.93962668361706   -0.92812082689116   -1.68553964873869
O           2.68918077326586   -3.22888348305568   -1.87465022636772
H           2.59260276550919   -4.05166058274349   -1.40125008361152
O          -1.83186846788672    0.96542719579943   -1.12838532309086
H          -2.57196061557965    1.35212221131080   -1.59655099391511
O           0.12374661708638   -0.61555523509123    1.40456015531490
H           0.79985533638256   -1.30168283675598    1.28614372308746
O           0.87327537314228    1.20944682622655   -0.44335336314434
H           1.40469023666365    0.57227778032058   -0.95121562573664
H           0.01998040450334    1.26164899114211   -0.90158363687573
H           0.45011041113775    0.14968738323569    0.87970749582066
O          -2.00881531008275    1.35295404076529    1.45041614123994
H          -1.58091779053362    0.56381742022220    1.80152212674864
H          -1.35537214252090    2.07907845722013    1.59885606609899
H          -1.98110253452665    1.15514356156144   -0.15539976824519
O          -1.43715682587420   -1.60105801261250   -0.46917431864636
H          -0.47564780135142   -2.29360686926683   -1.20746653247385
H          -0.96170404016235   -1.32217293927864    0.35856034813484
H          -1.65975300006264   -0.75290354333791   -0.91244161422798
N           0.05483371942444    3.10020339124397    1.68404974556823
H          -0.03470372981610    4.08126971885513    1.45310083473843
H           0.60952771448370    2.65710185842064    0.95672670262565
H           0.57250857306256    3.03023521164603    2.55098368815607
