    26
        -50.44540658  Gyration_radius:  2.75877925131 Dipole_moment: 1.147
 S           0.50902785539524    1.90976340901398   -2.31330614882472
O           1.34947799609544    2.37363534836410   -1.24516004601113
O           1.13229836858883    0.69821628104944   -2.99155342447966
O          -0.85969799873556    1.67663068841504   -1.98217348242346
O           0.55606627323404    2.97802662158502   -3.46345265080596
H           1.47288633476965    3.23377490344948   -3.52985715215576
O           1.15356513688084    0.62034590390208    0.80863809168599
H           1.37694450274884    1.41580211586292    0.29934218150118
O          -0.65472010887952   -2.24278232050105   -0.32265317142797
H          -0.92066504904080   -3.15111258781929   -0.46624398304043
O           1.52855974449092   -0.98985250239570   -1.23625457913484
H           1.33052695036770   -0.07461265905940   -2.26893931613036
H           1.56265427070567   -0.43239113501186   -0.41321166129647
H           0.72501442226231   -1.54272306912893   -1.11583076883109
O           0.43268613204625   -1.91243188275596    2.03090323272584
H          -0.29434015144576   -1.47660641668088    2.53889646276184
H          -0.24873458311071   -2.20704734010268    0.59325200812201
H           1.06825931990982   -1.20780305466374    1.86146845475037
O          -1.48551167239507    0.36386554204947    0.28335793256910
H           0.17071895560013    0.58271024144385    0.79458037743177
H          -1.44778792129915    0.92103562125608   -0.51320233637120
H          -1.44895281898633   -0.55126408963313   -0.03581023882540
N          -1.55970467257892   -0.43640889441682    3.13353023770044
H          -1.79269675914337    0.03487384037309    2.26365776194802
H          -1.24905764070312    0.26796770032248    3.79068979896886
H          -2.40681687696509   -0.85161227493232    3.49933240945811
