    26
        -50.44540678  Gyration_radius:  2.75919386529 Dipole_moment: 1.144
 S          -2.09904850407544    2.19073091812568   -0.23444849705888
O          -1.04582761443459    2.91547815644141   -1.06041165473289
O          -2.62990370654167    1.07538528229985   -0.96700529361042
O          -1.62883258603754    1.91213610298448    1.08411900657613
O          -3.22541315133546    3.27988334834374   -0.12902062690949
H          -3.62553314980199    3.31032314026628   -0.99467608799139
O          -0.75238095423695   -0.87486586495883   -1.02123604929090
H          -1.60176251097383   -0.41595132777405   -1.12107812695761
O           2.29550008003302    0.46107177457087    0.26818001690005
H           3.22520284905287    0.66019556509556    0.37959464582178
O           1.92938078629794   -1.93893987838316   -0.69941224771349
H           1.64908670313612   -2.44694714347972    0.10048888085327
H           1.12139453242755   -1.82694232405195   -1.21307392186649
H           2.24701679594241   -0.46721189510996   -0.10739501724045
O           0.65325427534507    1.24304680223322   -1.69753819422279
H          -0.27601061600483    2.23074787723687   -1.37014525930094
H           1.33618489495143    1.17538950387011   -0.99415343416188
H           0.14668874722017    0.39047729567233   -1.62355510509466
O          -0.10044244611111   -0.25913522833250    1.52903799723818
H          -0.70187148237849    0.50446071544951    1.56805404605854
H          -0.55629039742202   -0.82987575745707   -0.05841471484775
H           0.77611261615222    0.10799139183354    1.33507679225789
N           0.86873368884661   -3.05703581447771    1.53440579598733
H           0.16492079252638   -3.76376234693230    1.36232868941148
H           0.38972571921148   -2.20769884176000    1.82122560542195
H           1.44011460822022   -3.36895145180419    2.30905275448279
