    26
        -50.44540669  Gyration_radius:  2.75915894974 Dipole_moment: 1.141
 S           2.41860544637628   -0.84509813554868   -1.64186137512834
O           3.21200040804448   -0.50270557630823   -0.38868259340972
O           1.65766525244924   -2.04620401958139   -1.44029458585729
O           1.69515355379986    0.28547452483058   -2.12726691932611
O           3.56501227175922   -1.16532459040596   -2.66620726322678
H           3.90920298933366   -2.01416154842879   -2.39897920546662
O           0.04795080192504    1.82740966944909    1.48895798761214
H           0.07826735749363    2.57283742771979    2.08880813864871
O          -0.41736026577357   -1.46844280167189    0.20055989471807
H           0.15923546128524   -1.94772431749812   -0.41572662845773
O           1.59850783292218   -0.35660088747080    1.47303660796446
H           2.55669911426947   -0.42815981187465    0.46080757209617
H           1.23161129511302    0.55337009633489    1.52745907966626
H           0.83875962999173   -0.90224434096122    1.13535612098689
O          -1.87586806693221    0.16819965947857    2.10294159933502
H          -2.55977374450509    0.37824585272237    1.42136476489252
H          -1.50683656130295   -0.67804367433666    1.82580699779094
H          -0.70818852850966    1.24563661732725    1.79676723915770
O          -0.69315787957131    0.91095315376026   -1.05286208768597
H          -0.69173213223920   -0.66147596730589   -0.29035438422764
H          -0.40514550807166    1.46323427386120   -0.30936702629609
H           0.09626199630261    0.78462646041130   -1.60706644609674
N          -3.46492002653112    0.66644227090998   -0.03994757753288
H          -3.98317802026433   -0.13468270646964   -0.37765467596646
H          -2.68634001876671    0.82039287416785   -0.67494060607292
H          -4.07243266869465    1.47404549698833   -0.09065462800119
