    26
        -50.44540659  Gyration_radius:  2.75902139183 Dipole_moment: 1.145
 S           2.60523311828696   -0.74112253196441   -1.38635999330664
O           3.26642556169967   -0.20085001665926   -0.12646284394640
O           1.95236551946469   -1.99082366055735   -1.11342596908557
O           1.81251585211909    0.25660057463341   -2.02940969504807
O           3.84990336759649   -1.03526676511473   -2.29768002708016
H           4.25297544593020   -1.81604752143907   -1.92584469041458
O          -0.24206086766771    1.95822665827038    1.29143830439059
H          -0.32749836900422    2.75554730497156    1.81439406829329
O          -0.28435400854999   -1.47778932755983    0.32397298950756
H           0.38025271415277   -1.95108344214001   -0.20164186803947
O           1.51143568044111   -0.04200099646827    1.60077634009983
H           0.83626047596595   -0.69480556555636    1.27347529303445
H           2.54459261095229   -0.11153389600017    0.66656040477904
H           1.05400412955820    0.82544242793880    1.53596779294032
O          -2.03352806355197    0.17273062545214    1.94973743041035
H          -0.95828630030807    1.33256788994657    1.60859303641634
H          -2.68237066996398    0.24232137383617    1.20766269795071
H          -1.56369000696132   -0.65299161253037    1.78657881343840
O          -0.69955231506518    0.72700551538480   -1.18399229196256
H           0.13793449614883    0.63147972978820   -1.66965785008057
H          -0.59967559410082   -0.75518356831447   -0.26426586924567
H          -0.52400079076325    1.37662342136348   -0.48555095967966
N          -3.50108845953499    0.29146643550518   -0.33003937881270
H          -4.17704213374956    1.02438547846027   -0.50241867840673
H          -3.91461839280240   -0.58705726897409   -0.61574190352815
H          -2.69613298028581    0.46215872782757   -0.92666513258751
