    26
        -50.44540659  Gyration_radius:  2.75892595661 Dipole_moment: 1.147
 S           2.30731236665172   -1.14287342384384   -1.62139053627391
O           3.15660951538625   -0.75669885112155   -0.41888066333057
O           1.47327447134602   -2.26843063922986   -1.30521244558888
O           1.64782954884033   -0.00756055075988   -2.18140415428698
O           3.40025627857689   -1.62299076601349   -2.64166666461399
H           3.69271334542739   -2.46973436403216   -2.31332488153281
O           0.21399496159170    1.93524957770112    1.33097540822830
H           0.31141139345411    2.72255175896052    1.86678208034815
O          -0.50781187973874   -1.41346064913140    0.32973759764288
H           0.01725816457681   -1.97973012163356   -0.25828489218129
O           1.61217187673216   -0.34497484101821    1.46071470280811
H           0.80795224710771   -0.86195220862184    1.18649410792561
H           2.53223362311772   -0.56609795443228    0.43710089273764
H           1.30952884221872    0.58993561309048    1.44733685359890
O          -1.79787856015471    0.46774382088122    2.12447976102483
H          -2.48573523699360    0.66864586545337    1.44405811223622
H          -1.49461981483562   -0.42170541584435    1.90969427504138
H          -0.57024418053482    1.43377664456570    1.70312790743226
O          -0.66032950306440    0.86996668198996   -1.10894828599695
H          -0.74174480504574   -0.63180988252657   -0.21964084325648
H          -0.31458370712141    1.45971383749764   -0.42091491783968
H           0.10256692505836    0.64405513571106   -1.66866889119506
N          -3.41168895832323    0.89899425711880   -0.01434445178622
H          -2.64345520872282    0.94642676903849   -0.67816942068445
H          -3.96471248993750    1.73997380088698   -0.11784113813180
H          -3.99230924557349    0.11098588536288   -0.27180952237252
