    26
        -50.44540687  Gyration_radius:  2.75917533035 Dipole_moment: 1.146
 S           2.60336855051916   -0.42584846086720   -1.51703568445666
O           3.23483177565870    0.33950290767516   -0.36293375519835
O           2.19563315780157   -1.73403746167174   -1.08709361521979
O           1.61182220519563    0.35634523080870   -2.18219683072242
O           3.82311478444133   -0.59574931090999   -2.49147941449021
H           4.37799049776950   -1.25645085577633   -2.08405856170097
O          -0.49576055302637    2.00310305929064    1.13891036197649
H          -0.68618833881812    2.82166303184818    1.59731796056709
O          -0.00392786899490   -1.46789085092438    0.46906377354041
H           0.69934387581849   -1.87174631872675   -0.06416847964793
O           1.59273189227839    0.36198285811407    1.47859247836555
H           0.98869828878763    1.13069049945895    1.37806402700979
H           1.02163790310727   -0.42245239895215    1.26018647727764
H           2.56025869516149    0.37924849773168    0.47479217322297
O          -1.91002353468966    0.01617378919964    2.07841487991956
H          -1.07300940735604    1.30037982303223    1.56077949733011
H          -2.60558392427382   -0.09285640146869    1.38507874303302
H          -1.31614334569318   -0.73188440924113    1.94843403055626
O          -0.88469539174358    0.48224364089884   -1.18278828221296
H          -0.07571169690731    0.48103824691866   -1.72307780832063
H          -0.47472212233239   -0.86777991452889   -0.15201551905030
H          -0.78021833058875    1.21571239687382   -0.55687325502013
N          -3.51357613582221   -0.32472384904117   -0.08448609194320
H          -2.78806254471896   -0.08071538859845   -0.75317844341647
H          -4.31465194544354    0.26660741358507   -0.26462524018688
H          -3.78715649630727   -1.28255579483136   -0.26362345123741
