    26
        -50.44540671  Gyration_radius:  2.75912295487 Dipole_moment: 1.142
 S           1.06825296449692   -2.34779975477147   -1.61438677137200
O           0.62436643549188   -2.91258390249359   -0.37085648083224
O          -0.11871860731235   -2.07653096760396   -2.52796258606417
O           1.92535841275864   -1.21040248574208   -1.51991605352079
O           1.83126539268416   -3.46723935737399   -2.40855803521402
H           1.30246853396728   -4.25420412524827   -2.30159903557801
O          -0.91669849879620    1.92473336788396   -1.00671355961972
H          -1.28490256248455    2.70230758704766   -1.42647997395450
O          -0.55511850374886   -0.95126063508381    1.07608692370075
H          -0.16318814268560   -1.80655828616021    0.83765058002236
O           1.33382676523115    0.77363283782949    0.20147857497333
H           0.74699418640909    1.31045022564020   -0.35368835850477
H           0.16797099290818   -0.29852003154523    0.93969588817672
H           1.74171201904469    0.12531974677521   -0.39819351414243
O          -1.67924594251106   -0.62833046812728   -1.27978916331649
H          -1.43756411598928    0.31510376637586   -1.41074585395156
H          -0.83739154877410   -1.44814531583607   -2.03255874031733
H          -1.42627450327562   -0.81245226293212   -0.33578069778357
O          -1.75560180169780    1.66467805325224    1.45483632589472
H          -0.97215684151690    1.96564027570337    1.97645230317882
H          -1.29024109639585    1.90025515036268   -0.07671511094548
H          -1.76744613236272    0.70689326904382    1.56266541965837
N           0.60085817979230    2.20697664039265    2.68664099340015
H           1.16498814440632    1.77124610666143    1.96209955682344
H           0.75640276846277    1.69588616375256    3.54633229248391
H           0.94008349181795    3.15090441220290    2.82000507703652
