    26
        -50.44721203  Gyration_radius:  2.51046415879 Dipole_moment: 3.931
 S           1.07911603409895   -1.71445860030640    0.64328527562031
O           0.48326985599470   -1.52628773205239   -0.67073871220541
O           2.16205579293991   -0.73760355329436    0.85952195640786
O           0.12284617485465   -1.74177581508250    1.71242200015876
O           1.81191372781414   -3.11298224573245    0.61068993106396
H           2.50585119301901   -2.93711663665640   -0.01569893716965
O           2.09620529055988    2.37546646643330   -1.23160170003925
H           1.89679013680306    3.26662294418530   -1.52261480827174
O          -0.97322978623523    1.77114068726418    0.79667901911896
H          -1.40185830394998    2.46600976962124    1.29865842980501
O           1.55512262849320    1.61634786212236    1.14020907729272
H           1.83524092435831    0.56403686132515    1.08639799515905
H           1.89447720311007    1.99522960581322    0.24945991857289
H           0.53233021628159    1.65849420095338    1.07790599283104
O          -2.13782969232591   -0.38233506857331    1.40741577871972
H          -1.46256897378193    0.90063403364564    1.06007939583980
H          -2.42190996590286   -0.77554931351944    0.54570839411735
H          -1.38380990711519   -0.94169807351980    1.68405693226617
O           0.00823309804603    0.88687273332446   -1.70257666540181
H           0.21786932504585   -0.03083944356407   -1.43091035277372
H          -0.58754738096375    1.22279591742818   -1.01916353025719
H           1.36977460168525    1.78852102662382   -1.58349575085025
N          -2.38783853164939   -1.51801852426609   -1.02408238488688
H          -2.84380588816347   -2.41784725216278   -1.10470466235582
H          -1.38151969999329   -1.68262632868549   -1.00076210947240
H          -2.58917807339579   -0.99303352072114   -1.86614047352421
