    26
        -50.45156369  Gyration_radius:  2.67081282728 Dipole_moment: 4.836
 S          -0.26061611692670    0.89808950682584    0.14803125546521
O          -1.65143833880306    0.45863271235336    0.59510551477923
O          -0.34581483024177    2.09115910359159   -0.64727034506263
O           0.61240042137903    0.99341850913875    1.29277156364619
O           0.18250922185797   -0.26833407024061   -0.74687276428579
O          -0.78180743422818   -2.90742049815484    2.51310163983904
H          -0.99239331372738   -2.89637243383762    1.54243767371410
H          -1.44183775176033   -3.46120389516393    2.93333272615642
O           2.55852741924681    2.21866825660273   -0.08398415179631
H           2.09591646946951    3.01199572027386   -0.36628263640297
H           1.98444402003554    1.80265923116783    0.58385492188245
O           0.55148871778994    2.32138971196832   -3.15562319734251
H          -0.17691623102482    2.19679856793763   -3.76557854955887
H           0.15757613083537    2.37711996398902   -2.26233629741319
O          -1.10299395938061   -0.31978502403893    2.89468682342332
H          -0.23578683039525    0.10293020757489    2.81013978509142
H          -1.54612759302499    0.10771543078659    1.57701265722755
H          -0.94482649792077   -1.30018414405475    2.84594174300424
O           2.14331297422695    0.49516735270998   -2.04576055345076
H           2.55228882093078    1.08454136563064   -1.36585683340396
H           1.05704593996116   -0.01040804188087   -1.32735224773097
H           1.70652777592152    1.11042948828006   -2.67641915357537
N          -1.47533571642212   -2.62134726681647   -0.06730109046984
H          -1.41177816988575   -3.37045071966809   -0.74574178002729
H          -0.82871612413635   -1.89102096801347   -0.35431895700751
H          -2.40564899371977   -2.22418807683485   -0.12571776670642
