    26
        -50.44540679  Gyration_radius:  2.75910188152 Dipole_moment: 1.144
 S           1.99401248380574    1.90620880984947   -1.28420509757429
O           1.81450000223272    2.39119753995141    0.05554732019201
O           2.92351049856115    0.70090230965975   -1.29249394373047
O           0.80221368181479    1.65201858185102   -2.02744197453104
O           2.84186413453654    2.96708899384330   -2.07268332587942
H           3.53208260247559    3.23317912716949   -1.47006892656957
O           0.22306329430945    0.64642619426438    1.37999194414119
H           0.73680597061533    1.44271449621163    1.17030596552233
O          -0.20540821889309   -2.25625213395169   -0.65195456452321
H          -0.28138903217832   -3.17031317325723   -0.92606478356725
O           1.96332138824319   -0.96936514150206    0.24939010292301
H           1.32054781911285   -1.53681320061102   -0.23086745054196
H           2.55381909594216   -0.06355215365081   -0.63153212437289
H           1.39341923190951   -0.40660292289253    0.83895370085823
O          -1.13677268311152   -1.88915383451956    1.76240047877973
H          -0.57844392943689   -1.17318277191830    2.08610843071422
H          -2.01188815238050   -1.46482849806264    1.58776699332750
H          -0.57854671560232   -2.20638279281354    0.27715443008315
O          -1.24259882423398    0.33797112940133   -0.87048522850549
H          -0.97980075387300   -0.57800467132655   -1.05105138701218
H          -0.45310123648128    0.59073988438374    0.66779986225329
H          -0.65156777636612    0.89159407515811   -1.40951725901787
N          -3.33123773983435   -0.44738382488394    1.07574446756414
H          -2.87395678073878    0.01555541980762    0.29497168957258
H          -3.59648463466775    0.26573425689063    1.74319577129066
H          -4.17796373589214   -0.87949569912715    0.72903489844591
