    26
        -50.44540677  Gyration_radius:  2.75926123392 Dipole_moment: 1.144
 S          -0.50451764773314   -0.80744261077274   -2.89040073004265
O           0.26523049870777   -2.06839477664200   -2.52403844438965
O          -1.79672813950265   -0.80952926742159   -2.26386557326577
O           0.28837088388454    0.36342394356714   -2.69607006513040
O          -0.71587547434466   -1.00104739320999   -4.43440005017045
H          -1.38225822649826   -1.67951114804822   -4.51200533569042
O           2.03162241897126   -0.44529842680346    1.11017071855473
H           2.86108009187120   -0.63099913016914    1.55054012133887
O          -1.45961747515415   -0.31887546529187    0.37758520354932
H          -1.88669736953646   -0.44985385038174   -0.48408081440528
O           0.48172149515302    1.45695480919062   -0.24363151590179
H          -0.86002140585946    0.44944453669122    0.24475880901908
H           1.22274674242261    0.94301867828690    0.11334239134285
H           0.45510090629868    1.25319475291820   -1.19449852912800
O           0.35353100869485   -2.17344104176563   -0.06012773279356
H          -0.42237850966682   -1.60928767164840    0.20203264836608
H           0.33355120698796   -2.16828170090654   -1.45505517558455
H           1.13283121745547   -1.67307168111791    0.26858590919035
O           0.08939408563096   -0.07988691554975    2.82044066374653
H           1.34761230330634   -0.32350245254593    1.83290954890933
H          -0.01644404121795    0.90252009980606    2.81091160921754
H          -0.67263687610419   -0.41241429012539    2.33270681442794
N          -0.25343545526270    2.57873016040257    2.39616150042323
H          -0.03476910930286    2.52392669937651    1.40508220513822
H           0.35091220674500    3.27669993503655    2.81021602207479
H          -1.20832532598920    2.90292422711981    2.48272983105637
