    26
        -50.44540668  Gyration_radius:  2.75901183634 Dipole_moment: 1.145
 S           2.65975532788865   -1.44161015175908   -0.32431277390033
O           2.93975444020850   -0.31605208156685    0.52248137892496
O           1.99398379447181   -2.55366429005975    0.47363314943270
O           1.94523572174413   -1.16267482469284   -1.52807580748817
O           4.02858775367277   -2.10533454964476   -0.71419911523064
H           4.53918011622063   -2.11645844129316    0.09176844744316
O           0.59920764479895    0.93025537494627    1.06927795833349
H           1.55100889913961    0.74921203061622    1.01139218496254
O          -2.07450753081633   -1.11540108449683   -0.11643486275190
H          -2.91063161111313   -1.57895057820134   -0.16567849357115
O          -0.19836292270529    0.46488429097512   -1.47131744281622
H           0.58859376994405   -0.06355657527891   -1.68990202052265
H          -0.89262455317842   -0.17709955860221   -1.25566427995318
H           0.29073020318743    0.94658479532925    0.13540444195265
O          -0.01489992207628   -1.58513073708312    1.52935799602699
H          -0.77933313085900   -1.64663646806079    0.91474985989384
H           1.10749196140818   -2.18643432646443    0.96101420997740
H           0.20391921218305   -0.61501622130173    1.54431680626678
O          -2.29339407500468    1.14039195382005    1.18521379195607
H          -2.24720878822014   -0.27180769809839    0.39688797154459
H          -1.42403430807860    1.22154997565305    1.59364868985238
H          -2.28982325504229    1.80611042784974    0.45501004014508
N          -1.93174274795555    2.80370772369897   -0.92868420534819
H          -1.27185260303023    2.18751096502796   -1.39543475704783
H          -1.44691104202900    3.66512295804020   -0.71097847819753
H          -2.67212235503274    3.02049711065991   -1.58347468968374
