    26
        -50.44540670  Gyration_radius:  2.75932065531 Dipole_moment: 1.146
 S           2.24487607217613   -1.11028067750105   -1.72912401950407
O           3.11885897520343   -0.85590925042530   -0.50913980235545
O           1.36437783574805   -2.21970009452063   -1.49209402463797
O           1.63225039827750    0.09266317848997   -2.19273065812418
O           3.30846272419571   -1.55663966914520   -2.79477246060742
H           3.56533808308886   -2.43855943835415   -2.53668241297372
O           0.30777052257626    1.81115225112936    1.47682861048073
H           0.44397074257393    2.54853546373515    2.07190869431851
O          -0.56923154720896   -1.41376343644103    0.22366598092791
H          -0.07346240813639   -1.95451179505967   -0.41176432842592
O           1.60497324475704   -0.53114006658050    1.41253555878841
H           1.34340734464809    0.41393853264217    1.47646370880328
H           0.77703433183080   -0.98957489587622    1.10710369881419
H           2.50914410683559   -0.70873463403301    0.36465230196157
O          -1.76306278826769    0.37596836130803    2.17185981064632
H          -2.44522726587360    0.66112623158567    1.51628572585643
H          -1.50153631707288   -0.50603544854220    1.88398234134642
H          -0.49574640644090    1.31700108874251    1.81606052994808
O          -0.62823896147460    0.98052423213879   -1.03036099778283
H          -0.77143910988212   -0.58185478825787   -0.26058042601292
H          -0.25214960327436    1.49814249077207   -0.30142733889675
H           0.12022490187047    0.76685924923338   -1.61385795455522
N          -3.36849248150011    1.05022372536417    0.09016989456962
H          -2.60305417665455    1.11451996231612   -0.57540654729268
H          -3.88117579348658    1.92207170671343    0.06039873056922
H          -3.98787241444393    0.31397771058938   -0.22397459581645
