    26
        -50.45479420  Gyration_radius:  2.47102502046 Dipole_moment: 5.897
 S           1.06747568125848    0.52979768118125   -1.73652196218247
O           1.18555629603434   -0.43764167594559   -0.66018116558163
O           0.02810840487685    1.59356744352758   -1.30980396973710
O           2.27673620845894    1.18019323536684   -2.10242769319651
O           0.42733973652001   -0.15225722836206   -2.94612819817609
H          -0.50045171723060   -0.52061529078263   -2.61928325841497
O           0.71417566415787    1.05540744749745    2.52256040924127
H           0.83919342596260    1.63390505381408    3.27605239650442
O          -1.85238097621171   -1.67636879915939    0.77107384724462
H          -2.43972830753741   -2.10567023397900    1.39449518344247
O          -1.34658682270166    1.00143437053998    0.73992522907005
H          -1.60980193402365    0.05979347973014    0.72846445912143
H          -0.67836529745517    1.08125702816669    1.44857379554760
H          -0.54136498873643    1.33724819175024   -0.49846377453626
O           0.59613041198445   -1.64928539238940    1.68051298938229
H           0.97372066108560   -1.40896647928699    0.81844495514380
H           0.67200715876948   -0.84291186368544    2.21178045820293
H          -0.92853557155980   -1.79751975688853    1.12732512114257
O           2.68334749694577    1.29126172429823    0.73536789828659
H           2.33981800811426    0.53276936846857    0.23299093858124
H           2.93809222117666    1.92444880274196    0.05903790178794
H           1.47148376231242    1.22013306394746    1.91558315054309
N          -1.84090452782713   -0.90644805007668   -2.04976161224792
H          -2.38846940367448   -0.06110725317886   -1.94602614190358
H          -1.75039663531800   -1.33976518446629   -1.13274313049660
H          -2.33619892538157   -1.54265967282612   -2.66084781677113
