    26
        -50.44540676  Gyration_radius:  2.75898569965 Dipole_moment: 1.142
 S           1.93227067671142   -1.36831906205104   -1.91111821872015
O           1.20831314750002   -2.43292746815013   -1.27478211671364
O           1.08539736057200   -0.72808217660349   -3.00184039228194
O           2.49840896255152   -0.38536507879300   -1.04468432957756
O           3.09713071109294   -2.00854026613433   -2.74735406415111
H           2.70877281565728   -2.76711086490493   -3.17644360477814
O          -0.85368933160871    2.16420356403588   -0.38663267643741
H          -1.19228396523669    3.04402378408059   -0.55300181185726
O          -0.70510767416633   -1.33645746699525    0.29621709477252
H          -0.11396700260846   -1.99164154191431   -0.10789128867525
O           1.03624571560011    0.61390775838926    0.98289295177197
H          -0.10272620416132   -0.68523012178732    0.72108286038373
H           1.72514330612706    0.30545447719304    0.36917572376612
H           0.58177136131330    1.33741670136193    0.52392543261294
O          -2.39869539692170    0.82387241105206    1.24046964900937
H          -1.50257060052327    1.72338540148096    0.23755101374334
H          -2.27901932581084   -0.08112232174677    0.93092259609568
H          -1.89621860071310    0.86614287604420    2.09025656004175
O          -1.02579238170057   -0.00462648199454   -1.94883058698449
H           0.14561236178041   -0.39375545061920   -2.59857126116247
H          -1.07054018811520   -0.58893357184160   -1.14523449898925
H          -0.92266669081526    0.90009568667512   -1.57938263516397
N          -0.71266342724672    0.77690230823447    3.36667678120396
H          -0.76302530386567   -0.06359679652070    3.92835680000337
H          -0.60551420432926    1.56405982896332    3.99341690157902
H           0.12541384887787    0.71624387271616    2.79482310071472
