    26
        -50.45479420  Gyration_radius:  2.47132371405 Dipole_moment: 5.895
 S          -0.07747522826327   -0.49963331080484    2.04388878455751
O          -0.61067079601170   -1.62167766677348    1.12149471696207
O           0.10167177990071    0.69493322051026    1.23802911367062
O          -0.95063543492348   -0.35531888185925    3.15571168488735
O           1.29484064651845   -1.00528136811725    2.48991825210151
H           1.84333991867500   -1.18030985365088    1.61122101201372
O           1.75336456249832    0.30986701193121   -1.91413787323419
H           2.05533794135056    0.51812314354406   -2.79923554458415
O          -2.30083329046344    0.92586986853985   -1.35817492074371
H          -3.14832950446794    0.97629881406008   -1.80231031009410
O          -0.50057299565587   -1.12018766723231   -1.36386418511333
H          -0.54026030499936   -1.42404203376037    0.11920397602362
H          -1.19206887845311   -0.43559981674593   -1.45472797210858
H           0.34096571764974   -0.68003545982052   -1.59653345651419
O          -2.53993578323071    1.13940122450024    1.29234055266873
H          -2.48629794027716    0.99814208769893   -0.39411391950378
H          -2.82270598446876    0.57248416861557    2.01472514740952
H          -1.57351648327614    1.18516786316125    1.39087395146300
O           0.20462473063320    2.20389774064401   -0.99919622732708
H           0.25105437366668    1.87808092283534   -0.08530968233241
H           1.26267205012411    1.11511946062990   -1.58873793589839
H          -0.69095455827534    1.97877657901472   -1.29162252236506
N           2.47886305833953   -1.48228676440914    0.27928735493245
H           2.33917966686341   -0.72416126710363   -0.38596670817340
H           2.03677513980211   -2.31345982838519   -0.09312163745488
H           3.47156760674503   -1.65416819702393    0.37035832876876
