    26
        -50.45479409  Gyration_radius:  2.47101195107 Dipole_moment: 5.895
 S           0.37133319453003    1.07074102336563   -1.77479422917951
O           1.65823356132043    0.73839815781092   -0.98264630795382
O          -0.76755442235808    0.75565285530573   -0.93096032922490
O           0.43648284621354    2.41628150556491   -2.22727572789302
O           0.39787710349306    0.09701139677984   -2.95321357102642
H           0.44639988957205   -0.86626367439286   -2.53718058645471
O          -0.72363547584798   -2.38919421137126    0.77540111240335
H          -0.95984095842717   -3.07010422055532    1.40668780958776
O          -0.07461025044623    1.31420317990915    2.50106037510869
H           0.16611360633822    1.76365493077840    3.31227992648269
O          -2.09168730519657   -0.20837622735393    1.21652876369835
H          -1.85464704613429    0.18104296677012    0.35885001009130
H          -1.35394277552851   -1.63175686214771    0.93094180318124
H          -1.57905680375318    0.29892654489274    1.86314951410055
O          -0.37074385634619    3.01049031785879    0.46092533728499
H          -0.14565555013178    2.00914793197427    1.80744953837111
H           0.20965873053653    3.50539781785811   -0.12336235212139
H          -0.72109213333206    2.29786352679105   -0.10056971891597
O           1.30299203173320   -0.60452135241627    1.14118691295078
H           0.63632715761271   -1.30699370226311    1.00610279577488
H           1.51126597821871    0.17485436527495   -0.14035144968600
H           0.87672277081504    0.05779431480470    1.71956780162848
N           0.61652386339445   -2.17719159785965   -1.81447165195349
H           0.46766824349438   -2.96530476820446   -2.43084784904740
H          -0.01962297528420   -2.25746590861456   -1.02347059881503
H           1.56449058552082   -2.21428831057053   -1.46098734840668
