    26
        -50.45156378  Gyration_radius:  2.67110998802 Dipole_moment: 4.839
 S          -0.22279235391044    0.67338389577748   -0.62738286093868
O          -0.37566181627399    0.74303690128583   -2.05389314600908
O           0.08982652396663   -0.77620585049151   -0.22843760022273
O           0.77901390154617    1.55622521461660   -0.08086198607144
O          -1.56076434954462    0.92215658245804    0.06178803727850
O           0.22920983872179   -1.23179557661839   -3.75246808431888
H          -0.05711020739735   -0.44021357049025   -3.25482726455745
H          -0.56778363916060   -1.71552707375990   -3.97374946142263
O           2.57596499678917    0.96286467893544   -1.97902299984512
H           2.09969114617663    1.25006189646621   -2.76243352481992
H           2.07492203952700    1.31593743154032   -1.22206897601587
O          -0.54710064720643    0.39569199972026    3.86566087281240
H          -0.86752205989183   -0.35497678155414    3.29952091539218
H          -1.16710956905634    0.47931078591585    4.59193292363562
O           1.90218701364563   -1.57976655432988   -1.70700139033218
H           2.39877280161551   -0.73133554095852   -1.80889906840786
H           0.89586290903171   -1.18361001413060   -0.82133438760258
H           1.40783196764878   -1.68023871796623   -2.55094395758378
O          -0.76473311151391    2.25238510948139    2.00869110644639
H           0.09559561593654    2.34034840414185    1.57285959809302
H          -1.34879829539424    1.49304110230057    0.91505547839156
H          -0.63450810461989    1.62162615220389    2.76626643730625
N          -1.52648473267661   -1.43408824761028    2.15893133654372
H          -0.90092402485713   -1.30603833343937    1.36766948873764
H          -2.44763519818122   -1.14742908308190    1.84943643908737
H          -1.55995063504571   -2.42484482030957    2.36551206441463
