    26
        -50.45479401  Gyration_radius:  2.47099386597 Dipole_moment: 5.903
 S           0.21252162098150    1.67243983287416   -1.26250205376170
O          -0.90672511686910    0.70343714289780   -1.71233533920139
O           0.97776001354178    1.01747413099511   -0.21674591880277
O           0.96250332555980    2.07802037027821   -2.39933487260056
O          -0.54146357389255    2.85640999238325   -0.65607357230626
H          -1.14413312244718    2.46179346905868    0.10822162175884
O          -0.86465748925507   -0.59553181038954    2.39468199695320
H          -1.04686118097146   -1.16587734544888    3.14267750647651
O           1.13269369874763   -2.49560949221686   -0.69151345087818
H           1.30913900255537   -3.34478740351433   -1.09863242656959
O           1.60482748923692   -0.88549908774975    1.59421371963739
H           1.58168464904616   -0.08275784876813    1.04782075665981
H           0.11295857457094   -0.67518195234187    2.21295027858658
H           1.59242592588521   -1.61402737892712    0.95601348690706
O           2.22014222656898   -0.47792592823677   -2.06095681685522
H           1.55355628229028   -1.81721677471924   -1.26737623237063
H           2.02373670724409    0.00144490964266   -2.87017257908180
H           1.99038774962166    0.14768795713574   -1.35283374768951
O          -1.27043341099577   -1.30579651309391   -0.20493918166572
H          -1.06604017096488   -0.09107958749600   -1.08625640054113
H          -0.46838035620795   -1.83234880584398   -0.39043070438638
H          -1.21070970686091   -1.05463326154255    0.73819100402134
N          -2.02827946943983    1.75549544412052    1.10307928519373
H          -2.74586890386166    1.26367076525222    0.58525447308740
H          -2.47217472953427    2.40791506707379    1.73601887360627
H          -1.50861003454324    1.07248408858396    1.65098029382436
