    26
        -50.45479403  Gyration_radius:  2.47094375803 Dipole_moment: 5.899
 S          -0.51147623224389   -1.83095866242715   -0.90741483683105
O          -1.07313682305093   -0.49644580092016   -0.79765887482460
O           0.60938434627560   -1.96521649665918    0.15084528471458
O          -1.43908242206821   -2.89464774769172   -0.74158611756596
O           0.22193535663347   -1.95024466395262   -2.24365896307810
H           0.95134083816935   -1.19437639546158   -2.24757733088069
O           1.22723465484533    2.23656574576228   -0.57131353163057
H           1.55414126278664    3.12186216628775   -0.40611854684602
O          -1.01761125444044    0.69604796100576    2.54284309994864
H          -1.18339396065299    0.75123261895250    3.48491203720040
O           1.32940241299523    0.20836742515394    1.24575850988183
H           0.55333380849514    0.40854531689037    1.80473136563665
H           0.91330081882477   -1.08189781375312    0.57018866572425
H           1.37925983646372    0.93337549418000    0.59150210311032
O          -2.43718943398619   -1.24513353059176    1.38363316528013
H          -1.56523281639102   -0.04955284411558    2.20629128672827
H          -2.16080750392678   -0.94245025254642    0.50168645093967
H          -2.39194223125706   -2.20326671600564    1.32755950960548
O          -1.29810466901309    2.05157190610848    0.06894317603096
H          -1.41231784530340    1.20580494448066   -0.39485079099182
H          -1.31576328408463    1.81718580215026    1.00867042041760
H           0.24307080887658    2.26620231328332   -0.41068665606332
N           2.01461830280973   -0.14007436364287   -2.08101849236816
H           2.69115823089357   -0.48595762472154   -1.41197897893173
H           1.62937540253276    0.73063393426176   -1.72006315271094
H           2.48850241581560    0.05282728398160   -2.95363878248546
