    26
        -50.45479394  Gyration_radius:  2.47085354508 Dipole_moment: 5.901
 S           0.88497662746648    0.01947103601433   -1.91134872968522
O           1.32409954039795    0.06745500722111   -0.52817230018457
O          -0.63664155573699    0.29849076817337   -1.93860405450219
O           1.54074042538623    0.92589123486027   -2.78754665216746
O           1.00926235146132   -1.41696930546253   -2.42011037105444
H           0.42193757020144   -2.00785750316960   -1.78063507190459
O          -0.54429998228626    2.40886952692101    1.37238341556223
H          -0.92930712390946    3.23895825417095    1.65651877736968
O          -0.65147411658976   -1.69572907076513    1.88151009473163
H          -0.99412567727332   -1.96647445476298    2.73428222381432
O           1.09157745517405    0.22987434258615    2.15768275427385
H           0.58079727673409    1.05278928646436    2.14663757103805
H           0.07957314430686   -1.04294951294952    2.06739923978932
H           1.42303483580300    0.13688853114829    1.24940299869919
O          -1.79052047765601    0.22558145090461    0.32048503360717
H          -1.44915014984432    1.04152284079641    0.73594943375367
H          -1.10092507941153    0.24201241513850   -1.02767421963062
H          -1.45238255526444   -0.51168632910556    0.86666437146752
O           1.23474970747123    2.74472142527067   -0.58992036736246
H           1.50027528412426    1.81103668338675   -0.53064022780826
H           1.20599601089162    2.92080373980838   -1.53403151238777
H           0.08081403741548    2.62611136286189    0.64364563717600
N          -0.53051180168739   -2.71936256717737   -0.85476608933213
H          -1.47221599372919   -2.45839287465966   -1.11934222908696
H          -0.38744751362765   -2.44682756146898    0.11579634426284
H          -0.43883224982512   -3.72422873621812   -0.92556608042859
