    26
        -50.45479411  Gyration_radius:  2.470953461 Dipole_moment: 5.899
 S          -0.93432911673273   -0.75457851841804   -1.73013835963920
O           0.15667116697145   -1.69514751147747   -1.16533216208559
O          -0.83292561829563    0.51640327257130   -1.03535499747346
O          -0.80397430606770   -0.68498080137024   -3.14344830105040
O          -2.24832849177834   -1.42981988847779   -1.33633984100219
H          -2.22523016445185   -1.53190088464104   -0.29126126315899
O           2.51524442546699    1.27969273888233   -0.14820407529922
H           3.45268392233652    1.45966477472081   -0.23094317435876
O          -0.51830597075855    0.41592280703178    2.52837940744224
H          -0.33695441204211    0.71279107630996    3.42108875853297
O           0.04291816044175    2.29272171655022    0.80078944202117
H          -0.38782698313802    1.20876170256442    1.93710478803320
H           0.98009869639093    2.18012090138017    0.58341479037843
H          -0.42955278601486    1.84744584502618    0.07830615117628
O           1.28756477995265   -0.88732979906098    0.95811705369075
H           1.82337869434156   -0.14360786851363    0.61953364534830
H           0.63987616475862   -0.48928865493084    1.57313034050191
H           0.59111165191694   -1.37630384407428   -0.29460587313821
O           1.29959882835813    1.16475328762156   -2.52246761534992
H           1.23836571962452    0.53332721544497   -3.24408605976606
H           0.42884609042018    1.11829208402447   -2.09192487704539
H           2.15678761733074    1.23974109473348   -1.06414301470865
N          -2.02012630534006   -1.70659092396279    1.19118090440298
H          -1.33404252398405   -2.43903115836598    1.32440983008409
H          -2.87709659352389   -1.97403018012548    1.65736254328581
H          -1.66445264620025   -0.85702847344269    1.62543196916695
