    26
        -50.45156363  Gyration_radius:  2.67183735596 Dipole_moment: 4.835
 S          -0.53149606392695    0.60354246475096   -0.49275907918868
O           0.00877140943684    0.05708761133273   -1.81051361065233
O          -1.93427194998201    0.88977523889225   -0.60877014469942
O          -0.34112257516652   -0.58523548192998    0.46056412312067
O           0.27997844987403    1.71370712894520   -0.05593234795665
O          -3.84556868755898   -0.17514772377590    0.92903948445551
H          -3.26424082011648    0.26978341172540    0.28074135615161
H          -4.25052542336230   -0.91169937177878    0.46896940428197
O           3.77540537318262   -0.70626729302164   -0.81873485391192
H           4.41635951550803   -1.07149545062116   -1.43085069416016
H           3.05741251693117   -1.38498711561482   -0.71620841478509
O          -1.43817275240510    2.42674570728666    1.87403636193272
H          -0.70552569915806    2.34230902492087    1.23785684445509
H          -2.21872431791413    2.61766598950728    1.34740371266091
O          -1.68375930735813   -0.13375928001347    2.48819887467641
H          -0.88336757568689   -0.44120666358743    1.38337202909595
H          -1.57671555705013    0.84814030359489    2.52242674515715
H          -2.59010997877075   -0.27184541804797    2.13324769124771
O           2.23148962176110    1.17619956410219   -1.82652902639190
H           0.96294063564777    0.47417595893603   -1.93176823246672
H           1.93281093740134    1.73811812584312   -1.09649757824936
H           2.88783421936482    0.53684197532155   -1.44025297050330
N           1.68031911832544   -2.38643610956085   -0.72984828244748
H           1.00882211527456   -1.82463999010016   -0.21285843553558
H           1.71835033523938   -3.29845746293137   -0.29136580908860
H           1.30310644051333   -2.50291514416669   -1.66296715720368
