    26
        -50.45479416  Gyration_radius:  2.47119686709 Dipole_moment: 5.897
 S          -0.87392215092321    0.54945928381016    1.83536371078842
O          -0.86188403564639    1.03482280928909    0.46694835357178
O           0.27577048822819   -0.47460840599259    1.98846923772314
O          -0.74250852438667    1.55092685597700    2.83497230151629
O          -2.14088690639075   -0.27774056342708    2.05557027563892
H          -2.11470044748510   -1.05069369116814    1.34518151618167
O          -0.55365037075622   -1.40702985848127   -2.13299329912582
H          -0.39762720918011   -1.77412233530430   -3.00411613809230
O           2.42165299059907    1.17408774516862   -0.86531801372400
H           3.34512906278238    1.40775435937035   -0.96836563111426
O           1.34371586717038   -1.23462294813390   -0.18451321433398
H           0.68546609847642   -0.79687755926708    1.10693917524250
H           0.66816773733610   -1.38302941105384   -0.87572441359220
H           1.82668073796754   -0.42902184803989   -0.45436527099264
O           1.22605283306155    2.61374149335855    1.03898040801890
H           1.21081515605537    2.62362643695849    1.99963910751067
H           2.07032231681069    1.73849977115508   -0.13937953279767
H           0.35907152307311    2.24916338038627    0.79162954118095
O          -0.11816727592061    1.16844126370296   -2.12589231602432
H           0.82530917720600    1.27716312970681   -1.93555170998525
H          -0.47638163519013   -0.41700466220528   -2.22786196813630
H          -0.55576596180120    1.29738353118766   -1.26834632490080
N          -1.90329134030140   -2.16162584881889    0.34890309685656
H          -2.74229712941299   -2.71214290912814    0.22116140103642
H          -1.17039935149178   -2.76188556486426    0.70608795414248
H          -1.60667165989515   -1.80466443418245   -0.55741821659002
