    26
        -50.45479419  Gyration_radius:  2.4709619377 Dipole_moment: 5.898
 S          -0.80309631223281   -1.13095083190906   -1.58492702639162
O          -1.23767237335558   -0.64737320652964   -0.28657943644623
O           0.73509789474048   -0.98099554820981   -1.65926213084776
O          -1.15507495786724   -2.47572450074776   -1.87989427647075
O          -1.32253207062013   -0.18160869731258   -2.66512803020858
H          -0.94066233128653    0.76841523032522   -2.43025888507356
O           1.17852614330436   -1.26466456027563    2.23567414345701
H           1.77683741955793   -1.73590244104935    2.81706852642972
O           0.10440127784348    2.47619453868861    0.83254924931204
H           0.33593710273364    3.19079483990992    1.42728701800757
O          -1.02430855006006    0.51729757910142    2.14073290250587
H          -1.34985022570502    0.08941840039637    1.33176706434357
H          -0.30036597786406   -0.05160161760502    2.44164181800289
H          -0.41416980888258    1.81791906472662    1.37370482445455
O          -0.38974855097011   -2.92145549346806    0.84896088551439
H           0.65633058584594   -1.94916165131637    1.75834481788191
H          -0.91102238637785   -2.17236904971264    0.51297876453952
H          -0.29201913650311   -3.49936660353808    0.08757873041463
O           1.77517662683749    0.42393196328228    0.18123772426925
H           1.14542568728787   -0.39170078631778   -0.92946714475085
H           1.23084905162658    1.21320210655882    0.37328230566388
H           1.67045862710680   -0.16473363283129    0.95424333756895
N          -0.24952768300435    2.04802272793600   -2.03792407436412
H           0.73205037939630    1.95310961429893   -2.26746064527115
H          -0.32526618321536    2.22634869399531   -1.03823743132540
H          -0.62577423832525    2.84295387161198   -2.53791303121754
