    26
        -50.45479420  Gyration_radius:  2.47100879188 Dipole_moment: 5.898
 S           0.83552912816405    1.82787005539968    0.62971651530070
O           0.58137959045050    0.51499243657458    1.19557580146491
O           0.02474357306812    1.94661140776113   -0.68277183802130
O           0.51680815431098    2.92453706474093    1.47532234377442
O           2.29356644767368    1.89595076847858    0.17423438093638
H           2.42188580974445    1.11688069252448   -0.51868235133178
O          -2.71171403573746   -0.61050528237759    0.51126054516955
H          -3.66908386859022   -0.63962019305164    0.48593838777343
O           0.74442045805952   -2.28663935548219   -1.02600329104235
H           0.62604816299362   -3.17935617272465   -1.35312153046614
O          -1.80610920107621    1.35223488634750    2.07806862606188
H          -2.47082914130453    0.14537612126002    1.09409439527572
H          -0.89527993773861    1.02264810690611    1.99138124444842
H          -1.71672213647983    2.30700380128708    2.01754186515425
O          -0.96346781190723   -0.22696343803902   -1.54407710572644
H          -0.34896166204647    1.06238548822500   -1.03881875467110
H          -0.33161612759430   -0.96634163385988   -1.44313472268720
H          -1.66938765216576   -0.39014253798681   -0.88826271520457
O          -0.37886307200107   -2.00638122893844    1.31543214502959
H           0.07498154516990   -1.16667160378094    1.49544220082848
H          -1.29712441369754   -1.75304242988671    1.13965385149544
H           0.39119682743591   -2.28074241094366   -0.09310416394215
N           2.44216047056201    0.03224051184086   -1.56378010408542
H           1.98680383802140   -0.81708622446542   -1.23480694914073
H           3.38662762026204   -0.19539761286350   -1.84599312459726
H           1.93300743441157    0.37015879305697   -2.37110564179703
