    26
        -50.45479385  Gyration_radius:  2.47085739793 Dipole_moment: 5.894
 S           2.00009768895652   -0.04806781284880   -0.65703345936659
O           0.75206090562993    0.57071558979710   -1.06677976757018
O           1.66802785564758   -1.15679097599845    0.36985043300022
O           2.77510812697740   -0.60470018256266   -1.71013141843175
O           2.81625478464392    0.96759012512267    0.14287746330361
H           2.21361066808231    1.25564887400450    0.95348098928823
O          -1.56974396287574    1.44450951401576    1.51194707233411
H          -2.39552196000171    1.69697264842180    1.92704084805342
O          -1.93103043634107   -1.74728489289388   -1.09636417659596
H          -2.45549224137620   -2.51873067418450   -1.31507989309942
O           0.22587985406184   -1.52321267560430   -2.65337261183487
H          -1.15649422738149   -1.75498706227028   -1.70398995690198
H           0.41988236808106   -0.64450364934317   -2.28448245524619
H           1.08625335999984   -1.94629563929293   -2.71610120995943
O          -1.89899919341564    1.08708969705046   -1.05443948438208
H          -1.74201754816310    1.43172187943625    0.52949352821314
H          -0.94451687940293    1.08988513921444   -1.23435507026415
H          -2.16318197149407    0.16126613790231   -1.16097043816064
O          -0.70859258886030   -1.12885860502602    1.25968416300886
H          -1.21088857233229   -1.42638167264092    0.47605663860398
H           0.71543068183714   -1.12466699691231    0.74420049884943
H          -1.00846703726095   -0.21498700169392    1.43580322110128
N           1.29002293368045    1.50241760727661    2.11801077316742
H           1.30306169724036    0.67615895542608    2.70288174268383
H           0.33135920744043    1.65893748798754    1.81257554061639
H           1.58789647662685    2.29655418560898    2.66919701956744
