    26
        -50.45479401  Gyration_radius:  2.47095421014 Dipole_moment: 5.896
 S          -0.03963425113061   -1.60790320271245   -1.35888306118274
O           1.36353941451419   -1.35032177634632   -0.75976432414779
O          -0.89467911439129   -0.49330753982255   -0.99155046781200
O           0.08500710318873   -1.84136958619191   -2.75511548010475
O          -0.52757264817526   -2.86427885591447   -0.63698509838675
H          -0.49869393767057   -2.64320862701221    0.38947905135610
O           0.90535616104031    2.55499695928237   -0.79910345803623
H           1.45133247026320    3.29920541337109   -1.05620646138979
O          -0.80202330459784    0.59060023919086    2.41694565265305
H          -0.93211613996680    1.15026923934082    3.18364144148555
O           1.48464532355320    0.53418493419708    0.93565936699574
H           0.71029899805959    0.52118656611295    1.53266144791484
H           1.40113593296576   -0.60584662875761   -0.05757639607361
H           1.36458766428187    1.31676823066850    0.36283269222255
O          -1.61752346751374    1.79514565220694    0.24746115228038
H          -1.60209952778151    0.97900045966412   -0.27894196341007
H          -1.23012470018875    1.06264140419209    1.64944117353889
H          -0.85877406148460    2.30483391321908   -0.07313078580090
O           0.25104130030857    1.01969916487242   -2.88291043847178
H          -0.35985826098202    0.50324422859392   -2.32980320599123
H           0.72878912577547    2.04149166680735   -1.62018499517495
H           0.68930533768414    0.36000958896897   -3.42691326029744
N          -0.31295296591766   -2.23097091506054    1.82662089155563
H          -0.67799405609681   -1.29656038804071    2.00121578932190
H           0.68092471501150   -2.22176224810241    2.01939123349526
H          -0.76191712074444   -2.87774790273261    2.46171952345587
