    26
        -50.45479382  Gyration_radius:  2.4708286753 Dipole_moment: 5.899
 S           0.14237041940959    1.41434347652715   -1.55365229452307
O           1.51340875949366    1.03212393317864   -0.94704735979634
O          -0.89430488514540    0.86270646536545   -0.69968610472454
O           0.09038498474683    2.82244522849254   -1.73799474449624
O           0.11435136942072    0.68699812733129   -2.89827427986576
H           0.25622542643664   -0.33142995459761   -2.68501057102769
O           0.08884061266632    0.80311761480077    2.70759769820433
H           0.38237409324763    1.10549607617761    3.56808996467278
O          -0.51842595842940   -2.53927241716149    0.34569885590885
H          -0.65724932056112   -3.34341863994054    0.84773236204251
O          -0.48950062081806    2.83214707045515    1.07153388839382
H          -0.08474962422886    1.61072211065356    2.17217946058538
H           0.00556783999966    3.46953013021363    0.55013902281905
H          -0.85293264980798    2.21707124651695    0.41168690290406
O           1.43359585167273   -0.71737853305099    0.88944568509910
H           1.02832201962749   -0.21028288419605    1.61995606496428
H           0.79609370671116   -1.42670780831933    0.67336240661622
H           1.47732555579217    0.30722728307861   -0.22447079145251
O          -1.95529935060140   -0.58634201467536    1.31755650759740
H          -1.17154766323519   -1.87258524201722    0.69786034714905
H          -1.41284079526226   -0.17657759960777    2.00748108914357
H          -1.82158513691133   -0.02423514427152    0.53680535437531
N           0.56696032333425   -1.74024202801657   -2.24929346439485
H           1.54320932631318   -1.77332601472699   -1.98326706201428
H           0.40972019201609   -2.40521281211289   -2.99514501974540
H           0.00968551410980   -2.01691767009419   -1.44328392842175
