    26
        -50.44540671  Gyration_radius:  2.75896366239 Dipole_moment: 1.143
 S           0.00537936226040   -2.36865788370507    1.90986891473311
O          -0.23969371189410   -1.32150113546081    2.98689096308065
O          -1.16709910740703   -2.53636804213336    1.09778512308937
O           1.22590935497983   -2.12389164765496    1.21147879233477
O           0.18883869627769   -3.67108199875068    2.76787957827488
H          -0.68685724515299   -3.89446828329094    3.07389441675270
O           0.97121912705906    2.07718478167904    0.54745900230197
H           1.37043689517199    2.91561274341913    0.78002801348524
O          -1.40880346498981   -0.36599877195369   -0.50295364546401
H          -1.55580537644517   -1.24731695723011   -0.12394797878968
O          -0.95748954665767    0.74187262144817    1.83954163148132
H          -1.30416069891115    0.39207059665457    0.97553109641807
H          -0.55938851574697   -0.39527394132137    2.54234612378818
H          -0.17155863557748    1.27289873878396    1.58249324713675
O           1.27621844930877   -0.35191262415372   -0.81465947589938
H          -0.47073336772387   -0.37497670444414   -0.79874519048544
H           1.44245944934536    0.46576858275523   -0.32017993628771
H           1.41974075289169   -1.07557140644019   -0.18055277761481
O          -0.80964083986940    2.34554459857865   -1.34648551102425
H          -1.43899300226961    1.64821043116865   -1.13005235914643
H           0.30458360991521    2.27105593497527   -0.17578056001126
H          -0.32545551976662    2.00838573482944   -2.13911986137975
N           0.57382205650086    1.08103111797296   -3.30933815079273
H           0.00110717463632    0.56247547745724   -3.96320390082169
H           1.00394951797547    0.41143321551956   -2.67716167336193
H           1.31201459610305    1.53347482130909   -3.83301587170354
