    26
        -50.44540676  Gyration_radius:  2.75916081119 Dipole_moment: 1.144
 S           2.73837715641538   -1.25380602181015    0.43494897438098
O           2.99841136970726    0.11756478673912    0.09701171872103
O           2.29769262932018   -1.36844022008663    1.88734867593254
O           1.85611596912679   -1.96113989646608   -0.43601559894161
O           4.11201464370560   -2.01449857064686    0.45855783957010
H           4.71562131319031   -1.42607619934992    0.90557700237412
O           0.62432489804811    1.40391633067895   -0.10227942655355
H           1.57544140708294    1.21895810020387   -0.15871981602179
O          -1.94078116193437   -0.77005539306404    1.09427894829190
H          -2.72256372512933   -1.09222308365860    1.54308581664690
O           0.34569107256577    0.11407359435904    2.17288939877476
H          -0.47849819317599   -0.37105863472592    1.94688879208571
H           1.44603449314892   -0.73755817305615    2.07192072574236
H           0.45937416818676    0.75707330129447    1.42274845166479
O          -0.42719107831564   -0.79927301578086   -1.26370320289230
H          -1.01582821766226   -1.04162413819480   -0.53194445212053
H           0.20245708737719    0.71766925863606   -0.66671880339004
H           0.37874751536492   -1.32951614410280   -1.13875525145329
O          -2.23753996708191    1.69719595938379    0.28471706231294
H          -2.13788624794058    0.17482289009706    0.82350013040796
H          -1.33795855196720    2.03797461588593    0.34595763785532
H          -2.39641570003231    1.58268086014732   -0.68382219540663
N          -2.32291116198907    1.18328446342917   -2.37863489173573
H          -1.66368605675890    0.41147065455038   -2.32600502914940
H          -1.91062490744903    1.90029919021194   -2.96203274793271
H          -3.15841876367473    0.84828547517622   -2.84079974918425
