    26
        -50.44721205  Gyration_radius:  2.51050896285 Dipole_moment: 3.931
 S           0.81979527352833   -0.24758871325723    1.94562653566313
O          -0.58494280037929   -0.37877844135483    1.58963229187365
O           1.61546483966568   -1.30010383913617    1.28761520040607
O           1.34726228949353    1.07043134255191    1.73869588446998
O           0.92803664281953   -0.57812286576956    3.48611264721159
H           0.69811211259427   -1.50115493873693    3.48794473152811
O           0.13610595183733   -2.90146177500180   -1.76484979106351
H          -0.09267676997005   -3.06364175454733   -2.68136896908681
O           0.51514004634657    0.80255414998313   -1.95206085432962
H           0.86514280012164    1.24459313850282   -2.72707263323402
O           0.26363653061095    2.56850027746912   -0.16748234895640
H           0.42006188943981    1.54000292702736   -1.23524533228019
H          -0.67883898531783    2.50729505392975    0.12560693589282
H           0.76649121630189    2.17258369492190    0.57301874584966
O          -1.39379373350233   -0.98534197944836   -0.87850927246888
H          -0.57240640341183   -2.30525581260924   -1.39254263053385
H          -1.18083824140380   -0.83486843379928    0.06591978863310
H          -1.00300318603597   -0.23596604255026   -1.34812733797976
O           1.90829080867769   -1.18032781170311   -1.13895860316203
H           1.84496674826134   -1.20864267615249   -0.05092650321234
H           1.31478826349352   -1.96501019615700   -1.42896495256506
H           1.41012688647006   -0.33844176361150   -1.44708081158093
N          -2.15733812811190    1.92725303157765    0.82858730018370
H          -2.54743543813523    2.48540959393387    1.57715610577495
H          -1.71705975643909    1.10943750657048    1.25007104724943
H          -2.92508885701775    1.59664632739332    0.25720282564182
