    26
        -50.45620272  Gyration_radius:  2.4226197846 Dipole_moment: 7.327
 S          -0.31125767664739   -1.04948155863203   -1.92258964340961
O          -1.16762700297335   -1.54930510865261   -0.80124122218586
O           1.08136483498195   -1.05322506687892   -1.51135557878988
O          -0.61299041597380   -1.67320529908369   -3.16251350475618
O          -0.74802090467136    0.48411818964254   -2.03411459882631
H          -0.11289353667233    1.04725668019256   -1.54071946486630
O           0.76293717621690    2.19171398640189   -0.64842156936327
H           1.12835073382993    2.87133119063430   -1.21580308858816
O           1.02063456609048   -0.40399902204960    2.23109817197864
H           1.23336471776346   -0.66853835439791    3.12651576600904
O           2.53207159001693    0.48104440743386    0.07131082174353
H           2.20259856758259    0.19890003483914    0.94032025580877
H           2.16299898913472   -0.16682331627812   -0.56788816410954
H           1.53787655776912    1.60805128905882   -0.36459009092049
O           0.68068563460504   -2.53733967997234    0.77301847848109
H          -0.10995956139661   -2.29424055091051    0.24348045784248
H           1.39278792172717   -2.50464347716963    0.12461731230151
H           0.85509010618525   -1.24877933812936    1.72023637007027
O          -0.72593182869621    1.55365980832464    1.54945930840045
H          -1.86132420267442    0.88481275936099    0.73608573352537
H          -0.13121865460899    0.85604372677039    1.89458366236832
H          -0.20803786930356    2.00445430794509    0.86078297980956
N          -2.52887160523224    0.38397634421689    0.05810538519193
H          -3.40494902448704    0.13527328668690    0.50488939877019
H          -1.98535812896527   -0.51760878382425   -0.30371910428961
H          -2.68232100360102    0.96655354447106   -0.76154805219588
