    26
        -50.45620277  Gyration_radius:  2.4225998089 Dipole_moment: 7.326
 S           0.15226572476908   -1.18872219228017   -1.85961498628955
O           1.45423199614916   -0.87298112497683   -1.29929317621917
O          -0.65462776535772    0.06496033275842   -1.99274553194108
O           0.13903717999077   -1.97695069576049   -3.04113440934527
O          -0.64442055343045   -1.99460942068606   -0.73227903450951
H          -0.22324161999817   -1.84714056350304    0.14226273101520
O           0.86735214473083    2.12109289265970    0.96443736725544
H           1.05117801592422    3.02763167687472    1.21217576234648
O           0.24403876643217   -1.63086986795674    1.75721604251997
H           0.47944004680942   -2.46407190319740    2.16673397817303
O           2.30912453645624   -0.25179483405467    1.11871903849297
H           2.17948410554336   -0.49686651115694    0.17658203010093
H           1.97890399700757    0.65846590658634    1.19390820055769
H           1.10986282499334   -1.13252249615787    1.60311482312533
O          -1.24204941998437    0.65818125027685    1.83467756276787
H          -2.08704866786146    0.29606217362178    0.58865180574835
H          -0.79029585838253   -0.17910761984054    2.03611473786630
H          -0.52688153183065    1.27051436095403    1.56433405530304
O           1.22165526431575    1.85360976306062   -1.60375765141980
H           1.96178756798894    1.24190601516796   -1.68473146917125
H           0.45048731754858    1.29994516245384   -1.85554358455102
H           0.97133208920968    2.07486640235607   -0.03009965330588
N          -2.53720608676231   -0.04217081656893   -0.32741450278931
H          -3.36122483150838    0.49911374137509   -0.56614172112450
H          -2.75225060175944   -1.03379287321462   -0.25555600818212
H          -1.75093463099328    0.04525125120955   -1.11061637642460
