    26
        -50.44540658  Gyration_radius:  2.75929992391 Dipole_moment: 1.149
 S           1.44975970028479   -2.66844514058956    0.19889372842145
O           1.93411930182601   -1.89061526418986    1.30463675377157
O           0.07190910961630   -3.23500990535196    0.51121864731916
O           1.47581308467589   -2.03215919305557   -1.07852283231391
O           2.31759285746767   -3.97417160792223    0.10957979462098
H           2.41498898274073   -4.27209193042005    1.01073563598756
O          -2.13933799465574    0.21704996039702   -0.96481793690988
H          -3.00779194274236    0.29341226628719   -1.36024024787525
O           0.55153208088358    0.43670973808929    1.36985578613346
H           1.22037675121698   -0.23910370840917    1.56460592410790
O           0.62304413416788    0.50894597854974   -1.33146604919423
H          -0.32414716436717    0.35559936855027   -1.47299736693826
H           0.66172096559905    0.62800606606102    0.41132355643333
H           1.04425799351861   -0.36455925164603   -1.40823274755035
O          -1.38062254971564   -1.32553976651705    1.08895033687706
H          -0.72003440522095   -0.63766201320101    1.37092718599278
H          -1.78147799150554   -0.95002668032910    0.27411759486072
H          -0.60734875499485   -2.44309081055851    0.77348918861071
O          -1.63390550156947    2.20741255585379    0.65194499100593
H          -2.03103544798900    1.01077657207574   -0.36212184189964
H          -1.06490978830384    1.79208530545793    1.30987240539939
H          -1.02461456101767    2.76670542875339    0.11128992210429
N           0.26776929734131    3.41169059503155   -0.86420911619644
H           1.00591354263853    3.86404448659062   -0.33980638044638
H           0.03857356121679    4.00296989674120   -1.65268220447271
H           0.63785471882944    2.53706702376011   -1.22634471784855
