    26
        -50.45620276  Gyration_radius:  2.42260983092 Dipole_moment: 7.326
 S          -0.58288348579594   -1.64205159357360   -1.36330524183297
O          -1.55654830041997   -1.38335194050292   -0.25623867558697
O           0.74585705421446   -1.83181902409786   -0.80903299649940
O          -1.04119961464560   -2.62832337845626   -2.27690596214203
O          -0.55767019819538   -0.24277691520371   -2.13560570664077
H           0.20801682385459    0.29128283497089   -1.83145981076442
O           1.36803007478359    1.43671065287275   -1.36760410519284
H           1.91898264957765    1.69436901218221   -2.10746895752303
O           0.84001569716040    0.32506220487474    2.31752499510364
H           0.95899112826105    0.41734609299375    3.26320124859536
O           2.56202208399586   -0.20440193079281    0.19924151752544
H           2.02781260165508   -0.94185512660360   -0.16853958526539
H           1.93915406053946    0.84870223963297   -0.77611132673303
H           2.15743246563290    0.00100175610457    1.05795740160253
O          -0.08562393136658   -2.05702758417963    1.80614647431877
H           0.61154260864474   -2.48481092965305    1.29673836938589
H           0.44314247347532   -0.58224808780406    2.17140188364281
H          -0.76790712046038   -1.86468073071310    1.12637631435392
O          -0.26182225793377    2.19085263282892    0.68886465199683
H          -1.53415734318826    1.55945102034049    0.07206492481823
H           0.10327888469597    1.57612101586433    1.35839467507871
H           0.37045330059487    2.15939047077291   -0.04935420580152
N          -2.31125815780282    1.01030144916934   -0.42866679836189
H          -3.22606977274408    1.20776177400816   -0.03736689980481
H          -2.04711583365633   -0.06614982494567   -0.32483563499008
H          -2.28247590087762    1.21114390991073   -1.42541653928529
