    26
        -50.45620278  Gyration_radius:  2.4225914681 Dipole_moment: 7.326
 S           2.06765387064594    0.14945246481646   -0.77258180702983
O           1.33966953789107    1.39929088186581   -0.90177186040727
O           1.26439323629704   -0.96359088728517   -1.36964402164723
O           3.41811913260356    0.14793105465248   -1.21269478127464
O           2.06613645763755   -0.21887818698557    0.78286580343186
H           1.36152568843361    0.28624975478343    1.24363861306239
O          -2.33218824210834    0.43621439562220   -0.74294391451588
H          -3.20685170418368    0.41816287070758   -1.13232307493612
O           0.13533492637235    0.93786601735986    2.21563031812446
H           0.49871146863354    1.44320546318327    2.94356947655164
O          -0.55369648349915    0.42602717554617   -2.64805486290313
H          -0.10594920092955    1.27546904328462   -2.56748653075875
H           0.11088285389842   -0.20669969108208   -2.29787365446839
H          -1.68441599876160    0.38586083564697   -1.50448181352134
O          -0.74214329040606    2.44585129150292    0.33680699154904
H          -1.45901823163040    1.90893986907493   -0.03882835371166
H          -0.24195925726888    1.60915574861411    1.56078460363250
H           0.05047957922165    2.23258216998468   -0.20241309008036
O          -1.53033306774978   -1.05493265263527    1.37383694377986
H          -1.90766271609442   -0.57540365267824    0.60757330059586
H          -0.38375633232213   -1.96877049275829    0.87577883055324
H          -1.05546655150785   -0.37618979225686    1.88327031232722
N           0.49732864298150   -2.45908143821218    0.50228104789887
H           0.31273688241581   -3.42211386084278    0.24250601930831
H           1.24085800420017   -2.39692379553243    1.19366782979214
H           0.83961078522859   -1.85967462637777   -0.37111230535269
