    26
        -50.45620265  Gyration_radius:  2.42266884603 Dipole_moment: 7.327
 S          -1.06639965515085    0.29645420154731   -1.91593884224279
O          -1.26327735551897   -1.05381266850506   -1.30061356079597
O           0.35370751175828    0.57876457319668   -2.02717563943584
O          -1.84911028888849    0.48472024966224   -3.08612244334424
O          -1.63782511551882    1.27642095217443   -0.78983421588297
H          -0.89937569328628    1.61720050294624   -0.23974255554407
O           1.96269225704617   -1.23379414811387    0.89957160139388
H           2.58574010163397   -1.87564229474563    1.24141282083889
O           0.18372267265119    2.21977565329255    0.91642126940789
H           0.18646314241764    3.17744139397530    0.92587327715473
O           2.22746609068932    1.26124633634857   -0.29907899786233
H           2.36070796825037    0.41566740475450    0.15975714838935
H           1.66451390422441    1.04843917239284   -1.07518269703417
H           1.05012456584033    1.93509638752150    0.48026469209702
O          -0.06539295609539   -0.11536328124036    2.30859907838967
H           0.03678341224864    0.81241577696483    2.03564812221005
H          -1.38465255159546   -0.52906273923861    1.61103313165141
H           0.67952725704847   -0.58620534190972    1.88103584087674
O           1.18018591100416   -1.98776682725788   -1.46946503206317
H           1.50791714349845   -1.30340824330028   -2.06340528473824
H           1.65597771553457   -1.58422461986493    0.01348088057121
H           0.21668416555514   -1.80141085426974   -1.43003835241571
N          -2.24229054912844   -0.72758679776540    0.99363447927981
H          -1.84869316549601   -0.93794689204009   -0.02626540024943
H          -2.80386966199945    0.11631211821584    0.90871783908529
H          -2.79132683672431   -1.50373000474120    1.34741282026148
