    26
        -50.45620277  Gyration_radius:  2.42260838851 Dipole_moment: 7.326
 S           0.77587124198724   -0.46166177994824   -2.01977620463479
O           1.72039378521446    0.30789621174097   -1.22957659867572
O          -0.55762476486485    0.21827048168635   -2.01090794628816
O           1.19102347849055   -0.83675891244963   -3.32530657654591
O           0.48527899071922   -1.80345301960491   -1.20108999377326
H           0.75423292025414   -1.68622617876632   -0.26411004857156
O          -0.36307160773832    1.96234059156114    1.48292580604218
H          -0.67535150760029    2.74889627262499    1.93099277271330
O           1.01362068017221   -1.66997044592068    1.41078780049572
H           1.63574858085313   -2.34898949013328    1.67387675142818
O           2.08919322360883    0.65692860508570    1.35991014481431
H           1.33714952100838    1.23492014812227    1.56879540732821
H           1.50341850503667   -0.78874028247598    1.48363803232666
H           2.12148963181557    0.61891411666946    0.37910089011261
O          -1.43805342581161   -0.51310555875885    1.73533274784620
H          -1.95361847020781   -0.92815411971731    0.33541486341945
H          -0.62434306415924   -1.03775069617558    1.82647778419247
H          -1.13386507515265    0.41721299084997    1.69697605417153
O           0.12659348606903    2.54247358231082   -1.01035823545371
H           1.07713936117558    2.41760740711086   -1.10718373201229
H          -0.24603986935197    1.76111044715660   -1.47430594480862
H          -0.23139433275475    2.21851134867730    0.52423248276287
N          -2.14881048669194   -1.20875507698599   -0.68407508708379
H          -3.12917847939062   -1.10594576797467   -0.92345753450188
H          -1.82534364874561   -2.15987224763727   -0.84364005909954
H          -1.50445869393523   -0.55569861704603   -1.31467358620422
