    26
        -50.45620277  Gyration_radius:  2.4226034434 Dipole_moment: 7.326
 S          -1.19495569084984   -1.85709394125915    0.13383431958141
O           0.28120069329718   -2.07935037036601    0.02373300282117
O          -1.63931015746550   -0.99255912334442   -0.94501039699497
O          -1.91820182328351   -3.06459191125968    0.32441308500771
O          -1.31666648450992   -1.00347939420650    1.47980484774886
H          -1.37246209616919   -0.04741791029016    1.26335516473633
O          -1.34422741507410    1.64283340252450    1.14057797576729
H          -2.13004168256864    2.03348976890975    1.52429960703936
O           1.30955444671992    1.28896039549939   -1.67485019686470
H           1.96386209308431    1.63756063274588   -2.28091680607504
O           0.70057498033282   -1.14266362213257   -2.38832305103524
H          -0.22821479297559   -1.09664347422190   -2.64083525317350
H           1.13959128190993    0.34389759198045   -1.95777584376561
H           0.66999186709975   -1.60368967133102   -1.52166036936350
O           1.38177093439098    1.54516574638026    1.02258671831045
H           0.45394237960587    1.78303996357969    1.19061712657135
H           1.47698874457891    0.11599074674131    1.61098528964245
H           1.45422733128704    1.49072174319142    0.04724804860442
O          -1.44262429987489    1.59547424156958   -1.42105826814068
H          -1.63786980208470    0.63337637414933   -1.39420257160731
H          -1.44237263524214    1.72753689185421    0.13809347161268
H          -0.50430580894722    1.65929027563843   -1.66344316642732
N           1.39037897738771   -0.90083255758956    1.94976811652898
H           2.28602175335789   -1.28162083961633    2.23581081437913
H           0.95553542713330   -1.47500753599506    1.10092823962808
H           0.70761177886060   -0.95238745315124    2.70202010546791
