    26
        -50.45620267  Gyration_radius:  2.42262833107 Dipole_moment: 7.328
 S           1.17474063446125   -1.62068774994429   -0.94270725762409
O           2.01451656792807   -0.52646320809348   -0.48847676786959
O           0.06643218443539   -1.08326497754698   -1.79323585300387
O           1.83470053794738   -2.72845876218734   -1.53826632641593
O           0.39359331627713   -2.15875917729198    0.34388408728651
H           0.41642241067812   -1.48167081143281    1.05455998807609
O          -0.31910093665129    2.45869038371468   -0.18890502223521
H          -0.56382349583285    3.35276925851764   -0.42910085026561
O           0.20933885381402   -0.42329915444567    2.36212298707619
H           0.57566978912830   -0.78921899297801    3.16784866429667
O           1.73397331946133    1.36235980393208    1.33270396036504
H           1.09645875626712    1.94411251208814    0.88725677787575
H           0.83933490479910    0.31065854473532    2.06828060106643
H           2.02137964981262    0.72042626521083    0.64725428916627
O          -1.92987257384990    0.68248392645133    1.07568440130291
H          -1.43368232484510    1.38508233357024    0.60705172013869
H          -2.12436640577551   -0.51714141017916    0.11598590952700
H          -1.30381760217660    0.33032637127950    1.73120939930295
O           0.94072382556688    1.35642065862957   -2.18657800934460
H           0.11919860859412    2.06081696262181   -0.99617090973801
H           1.83163275319835    1.19796730635409   -1.85533499881088
H           0.54726548711296    0.45663231669014   -2.19759145579558
N          -2.09153935754718   -1.37359066622255   -0.53335639237214
H          -1.17635157950035   -1.25573578356532   -1.15617344481704
H          -2.92475820864006   -1.44515499703442   -1.10747339342302
H          -1.94806912466317   -2.21530096287335    0.01952789623466
