    26
        -50.45620270  Gyration_radius:  2.42264520055 Dipole_moment: 7.329
 S           1.65627137720834    0.68556749529048   -1.29709818638063
O           1.55745083935049    1.46166846242592   -0.07372592693177
O           0.32098291059928    0.63954857379403   -1.97207491269917
O           2.70873083177787    1.02755900021931   -2.18746647919320
O           1.87271380047311   -0.83508326702141   -0.85449899595801
H           1.60413137155730   -0.94997483484976    0.08289133291849
O          -1.99300219231786    0.92146703035522    1.16677721121972
H          -2.84839028620009    1.26809531557905    1.42194050757167
O           1.07807618523607   -1.41305195709387    1.62603002672344
H           1.79486592064334   -1.78341397913614    2.14210667030681
O          -0.93426751013570    2.49942402587258   -0.61695508045783
H          -1.64491304052638    1.52988935275859    0.45211035050527
H          -0.14917244055221    2.85837860733783   -0.18871637076477
H          -0.56023956753822    1.85520180388864   -1.25703159914136
O          -1.45279087371033   -1.68160633732630    0.63776856985526
H          -0.99640088009352   -1.75859464336626   -0.84000003664910
H          -0.61603711759400   -1.77829935451009    1.12370508232272
H          -1.75026545664079   -0.76826072736798    0.82953030833021
O           0.53816220126660    0.99671665014256    2.31537606042047
H          -0.41063772393393    1.05871197206743    2.11725768921452
H           0.89350875679105   -0.49590079216827    2.00890267411526
H           0.99257543251259    1.32735071073029    1.50994366665301
N          -0.54852680030301   -1.71594270438947   -1.81658678678810
H          -0.20014734679459   -0.66742332929889   -1.95291826975675
H          -1.20108154214862   -1.98813617254541   -2.54396291730785
H           0.28840318107358   -2.29389092138857   -1.83330459812886
