    26
        -50.45620277  Gyration_radius:  2.42259851304 Dipole_moment: 7.326
 S          -1.73310283031250   -1.25660960292944   -0.55832133091571
O          -0.50736500566440   -1.68986412226772   -1.20534427418239
O          -1.93254568342216    0.20864886871933   -0.79026761491077
O          -2.90154025130751   -2.01808642021533   -0.82733661875001
O          -1.46446323289540   -1.32403504419598    1.01597495788368
H          -0.49813284973205   -1.35035528600736    1.18771783458634
O           1.10655388860922   -1.26520609721839    1.72674241506939
H           1.33797589348308   -2.02976717641739    2.25514766956212
O           1.80335774216402    1.32366185958527   -1.08520127175882
H           2.34279484897706    1.97868280147369   -1.52897028442280
O           2.05725808705955   -1.41108784849734   -0.64996588590263
H           1.57517164392102   -1.37840232328676    0.83826614813414
H           1.16511005081747   -1.63944160177410   -0.99114318492655
H           2.18610616279902   -0.47557873573299   -0.87689511932128
O          -0.14591496843284    0.61704090145679   -2.66434030833444
H           1.04621900732375    1.11564048045361   -1.70612446443362
H           0.01788423818190   -0.31392607296413   -2.85143141881044
H          -0.90558498999793    0.58579680172571   -2.04263985737413
O           0.99300183374372    1.45311819632161    1.49821895996127
H           1.31873342250868    1.50620920744848    0.57596255703533
H          -0.55445872462213    1.50881282688849    1.48544412996343
H           1.17065558046892    0.53730942373741    1.77289093634674
N          -1.62058543559334    1.39274847683362    1.40734876536281
H          -1.80998894512503    0.92293146227011    0.41604154981240
H          -2.10499694529477    2.27950604095280    1.49680570421591
H          -1.94214251765745    0.72225298364075    2.10142000611098
