    26
        -50.45620277  Gyration_radius:  2.42260242525 Dipole_moment: 7.326
 S           0.79755616119637   -1.95971467306864    0.64639498870341
O          -0.65253214908552   -1.75169763262530    0.95390743062734
O           1.57134741787854   -0.84919621599759    1.17246112792635
O           1.24637603454660   -3.26567065253634    0.97879914931907
O           0.83589966856203   -1.82645555130125   -0.94606120693775
H           1.10077619278557   -0.91502309650139   -1.19722036598588
O           1.40079001201027    0.61510138211367   -1.86191931980217
H           2.16548770248645    0.60111986322039   -2.43840589533828
O          -0.74379147031475    2.15732998405186    0.98699064239167
H          -1.20893149458645    2.87875105007933    1.41148254316868
O           1.93195280222724    1.65452389391690    0.42093534233678
H           1.07713037284334    2.03949703207463    0.67462860369351
H           1.94224245293460    0.75919132813002    0.82437746035032
H           1.68514156177687    1.09725089025364   -1.02020551612617
O          -0.47056356275031    0.20359409855282    2.69021086326484
H          -0.67455893667724   -0.57841799802779    2.13212224894821
H           0.48068891623244    0.12985525297685    2.82516897406854
H          -0.70122337105509    1.41640573390976    1.65876464315227
O          -1.23540248268349    1.23450076205228   -1.51380420938744
H          -1.14619214536814    1.62511737369220   -0.61996874215004
H          -0.32329106850773    1.14637232351141   -1.83939326713439
H          -1.68843732230769   -0.23938989902505   -1.37181007694373
N          -1.84753872694319   -1.29066173061817   -1.21136512674567
H          -1.38309294797985   -1.52854272337058   -0.22803357318655
H          -1.32667429065441   -1.82366857579533   -1.90369283227625
H          -2.83315933656757   -1.53017222966856   -1.22436387593629
