    26
        -50.45620271  Gyration_radius:  2.42263225513 Dipole_moment: 7.327
 S           0.49408818305232   -2.06365650821285    0.62624060933680
O           1.48712259541647   -1.44899718752605   -0.31001513225254
O          -0.83845470549063   -1.96356481173101    0.05794747707732
O           0.89692214037187   -3.34485654651080    1.08846455850348
O           0.53192492095491   -1.06560621433413    1.87427905976753
H          -0.20549426971520   -0.42094206574016    1.80660142826805
O          -1.30623340528206    0.86810436848428    1.82958269306903
H          -1.84900296233302    0.84965944220507    2.61843045177626
O          -0.80866377298249    1.22443364052896   -2.00732685792944
H          -0.91719001123590    1.67609871867952   -2.84471960126295
O          -0.00078371407152   -1.21266594585742   -2.45508701585465
H           0.68531349074687   -1.32717419531194   -1.76168802928276
H          -0.72123453045831   -1.76931161115128   -2.13945780179593
H          -0.45637948693350    0.31267404832271   -2.22327318311427
O          -2.56811421790142    0.00833981609749   -0.23029824720162
H          -2.14838193904486    0.50673219184437   -0.95052460634687
H          -2.07239739752035   -0.83786112457313   -0.17847291180007
H          -1.90121705743229    0.57846841272067    1.06551215515357
O           0.37138635170877    2.27256788831466    0.19630986996324
H          -0.01887828424643    1.97816329431013   -0.65250465120525
H          -0.26627689380425    1.99146841636031    0.87460338823018
H           1.60786887179932    1.39434629087656    0.50887839145521
N           2.35462518118069    0.66000907504200    0.75229045503867
H           3.28025800750856    0.94899261752117    0.45443680589731
H           2.03986503822532   -0.28178688949029    0.24919153533779
H           2.32932786748628    0.46636485913159    1.75059914917046
