    26
        -50.45620265  Gyration_radius:  2.42263030084 Dipole_moment: 7.329
 S          -1.51798525541071    1.60826447129744    0.06158930556578
O          -1.24756381796835    1.06851481166010   -1.30807696211515
O          -0.26786576417402    2.00449065069819    0.68518075783552
O          -2.56975593159521    2.56262141859088    0.07664183584633
O          -2.02800677912343    0.31374733041876    0.84862786053618
H          -1.28432651801710   -0.08339709512970    1.35174909038048
O           2.35031589544059   -0.35444403197338   -0.73013123983619
H           3.16751116063214   -0.50378246789471   -1.20643589384778
O          -0.13641246269073   -1.01486912600484    2.18152475846711
H          -0.35650605326265   -1.09418851300700    3.11025737194208
O           1.74027364336618    0.68469235169747    1.77571012899218
H           2.16982458914254    0.32966560289370    0.98024003322678
H           1.07983375410222    1.33213883236519    1.44551233980283
H           0.64852266005612   -0.38050055739842    2.12609667525608
O           0.49619579169612   -2.25049449340336   -0.16975348332030
H          -0.81209685897157   -1.82977089158282   -0.88319957777980
H           1.21214518357396   -1.63681267825332   -0.43488789410137
H           0.31170287408092   -2.03147686010020    0.75956684573194
O           1.24135199525348    1.83339970912310   -1.61112154468253
H           1.93805045847089    0.46581394748226   -1.12927766918997
H           0.29645111418708    1.57138239384466   -1.66679641938938
H           1.25464064130269    2.43286060300208   -0.85680907767897
N          -1.71735009351743   -1.40281949647216   -1.27619867672325
H          -2.46621440577244   -1.50662282308312   -0.59562695804330
H          -1.97051387197021   -1.80968638233283   -2.17028185520754
H          -1.53222194882973   -0.30872672643811   -1.36409973166740
