    26
        -50.45620273  Gyration_radius:  2.42262177606 Dipole_moment: 7.327
 S           1.03201248928541    1.09946310910332   -1.61905779273773
O           0.08998606075355    0.03810551186615   -2.09517992931684
O           1.96258634783218    0.53054994179068   -0.66032645622334
O           1.59295211358728    1.85242249148740   -2.68482392923389
O           0.06843027135240    2.07271157430329   -0.79486007138647
H           0.11498285654138    1.85528373166788    0.16147832509934
O          -0.07059061909074    1.57388994842708    1.82253551950087
H           0.16681082109423    2.34698215054357    2.33561686722359
O           0.02964640448085   -2.23833318890975    1.08205065202551
H          -0.07008300415340   -3.15892186780939    1.32603964896134
O           1.76736394349704   -0.21315713664239    1.86393458990204
H           0.67593898214042    0.90448168080847    1.95081134811472
H           1.25721666413461   -1.03392100324832    1.76704104530093
H           2.02982843841789    0.03747709756909    0.95134589454415
O          -1.91400090075016   -0.35607271764420    1.24713301783643
H          -1.40453881879209    0.37257201793339    1.64108769319127
H          -2.17527575699521    0.15321138284779   -0.19172983686987
H          -1.28717901036228   -1.10772355367376    1.20738460386264
O           1.31224141792931   -2.09345550399774   -1.18216059232946
H           2.13941053354737   -1.64923694294343   -0.96530456622722
H           0.48443184921464   -2.23155228497489    0.19031430125119
H           0.80593253831504   -1.39670212036980   -1.65422126218818
N          -2.19617266574536    0.56255600124506   -1.18580358009906
H          -2.21921721525813    1.57827865445992   -1.13574274298956
H          -2.97381359540849    0.20073661979411   -1.72742319749869
H          -1.21890013556751    0.30035439636607   -1.65013955971282
