    26
        -50.45620257  Gyration_radius:  2.42269533293 Dipole_moment: 7.331
 S          -0.72590721028457   -0.51181970400826   -2.02697292433628
O          -1.55206132082334    0.49490348385245   -1.38463893708862
O          -0.56259941755935   -1.68580844313419   -1.11286028431981
O          -1.09075539096916   -0.89119053804184   -3.34611510536156
O           0.75487534944130    0.08718654060530   -2.08851706106180
H           0.84177060409646    0.82531096435658   -1.44702302551712
O           1.26384992095781    2.02400023333412   -0.32496378107081
H           1.56408333791722    2.82130228936371   -0.76250483261022
O          -0.85054575066276    0.13615218147546    2.33297764849257
H          -1.15457829877518   -0.02344172170274    3.22691406407796
O           1.73667639325517    0.07363659088340    1.52594833323866
H           1.85657860509755   -1.05751343193847    0.47503465257486
H           1.75728930075932    0.87570629255908    0.97643401882278
H           0.83534869779481    0.05489723527870    1.90895366485326
O          -2.40454474378928   -1.13042429642757    0.66756297489566
H          -1.75471529953217   -1.50320603997939    0.03255420798613
H          -1.44466684922492   -0.40223274723865    1.73361802830279
H          -2.83105893051277   -0.43425360564799    0.15572422939010
O          -1.13759952427387    2.24620975544501    0.54503987261189
H          -1.45736444941868    1.69072430590426   -0.19911176774094
H          -1.13098127346519    1.65851317420254    1.31827177233655
H           0.34273394037411    2.22623000524097    0.03895983312721
N           1.83325729514778   -1.74883205520602   -0.34813967428521
H           2.35598517491557   -1.36409043433515   -1.13136876139927
H           0.77257970421530   -1.79820308774413   -0.68224133559973
H           2.18235016532315   -2.66375696709573   -0.08353580031663
