    26
        -50.45620277  Gyration_radius:  2.42258501484 Dipole_moment: 7.325
 S           1.26818694598660   -0.20910482447645   -1.80052871686409
O          -0.10171468006399   -0.79623599174916   -1.93925774292013
O           1.90820212226719   -0.74134052245350   -0.61063963256320
O           2.01419973433587   -0.26729318615976   -3.00781219170723
O           0.95607301311140    1.32938327260964   -1.49917873339409
H           0.98744402106602    1.49169922928090   -0.53139616650178
O           0.85150733172691    1.97490724070515    1.08758325995589
H           1.47179362323024    2.67423121645448    1.29615523831997
O          -0.92225733116193   -1.39978086705104    1.83615768283621
H          -1.41937328378609   -1.99836085037361    2.39433970695959
O          -1.72763636926329    1.07904635521938    1.09169278052101
H          -0.90079898670406    1.57083783953859    1.23380836533500
H          -1.85539981747120    1.06930270025248   -0.45151061554371
H          -1.53435836122707    0.16909915761134    1.39846717348899
O           0.05582603193312   -2.73213676167915   -0.17900366904100
H          -0.10560845537968   -2.11401117955973   -0.92497915367463
H           1.01105110881914   -2.68367875993847   -0.06181197213646
H          -0.60471010120027   -1.94109908821949    1.05628042421364
O           1.62848277999872   -0.30122819872829    1.97619136524788
H           1.20432730566777    1.13737757765864    1.53014852788030
H           0.78587584128297   -0.75491196106087    2.14195176733175
H           1.88970354039442   -0.56508277905498    1.06700951799304
N          -1.77697811592078    1.03393929968904   -1.52332723203638
H          -1.31665339386995    1.87651985837509   -1.85928298835911
H          -2.68126801088002    0.90498209314126   -1.96447922878260
H          -1.08591652289110    0.19293913997008   -1.75657777656003
