    26
        -50.45620272  Gyration_radius:  2.42260180155 Dipole_moment: 7.327
 S           0.34674522502472    0.87373587100553   -2.00255330635861
O          -0.73926088523709    1.54232091353578   -1.21879081157063
O           0.09769568425607   -0.55576332409053   -2.05929595120603
O           0.61271075827922    1.52532458230310   -3.23630608113168
O           1.62484137718899    1.07535582761211   -1.06377117522599
H           1.77129640609164    0.26847220494191   -0.52399422746838
O           2.13381775997786   -0.94709654701616    0.60046071113911
H           3.02012365125585   -1.28725981181049    0.47352345867206
O          -1.68097026317222   -1.39233315558315    1.19029605116925
H          -2.43760090749745   -1.74410488322019    1.66009268783023
O          -2.47626144126259   -0.41687803605403   -1.09194086848112
H          -2.03664599642835   -0.99035039703453    0.34533578982136
H          -1.96338224134481    0.41917221702678   -1.14273474984671
H          -2.05028504131989   -0.97167833335577   -1.75468994677523
O           0.34781585910224   -2.53393465886355   -0.33070056425618
H          -0.40878880721802   -2.35537220383492    0.25151059680571
H           0.22546634985633   -1.93978345348948   -1.10297197674477
H           1.50183138534913   -1.66182753365215    0.26676209763079
O           0.27668411515694    0.12542970433426    2.29038537803118
H           1.05715209499102   -0.29950215878750    1.89540342467304
H           0.23987244615421    1.49868270007081    1.57590609824058
H          -0.48345432330328   -0.41071679439609    1.98341017049182
N           0.25550275012111    2.36583583602266    0.94029080336950
H           1.21720090874607    2.59589742463597    0.70163838545178
H          -0.21943894113219    3.15495770934195    1.36541647191092
H          -0.23266792363433    2.06141630035686   -0.01268246617157
