    26
        -50.45620268  Gyration_radius:  2.42256699356 Dipole_moment: 7.327
 S           1.79380955069019    1.09546976858879   -0.69009469865594
O           1.44356388209036   -0.09843940079789   -1.52230148550128
O           1.88723869272924    0.70640559322222    0.70588316094848
O           2.88492410618245    1.83297051660302   -1.22196035852802
O           0.48550017548773    2.00445791963118   -0.82187923775826
H          -0.09688085129050    1.86350271353585   -0.04405479888542
O          -1.31380260189554    1.68122415376358    1.12126377891069
H          -1.50284313749369    2.51113650731214    1.56041904261396
O          -0.59540803172556   -2.13754646604109    1.12147895622410
H          -0.79221331449721   -3.04401875808574    1.35919556343019
O          -2.24452904994778   -0.48540202804333   -0.25572608843454
H          -1.71565000304670   -1.16028215468570    0.21792605037847
H          -2.14960944487414    0.32358685521547    0.27543018784173
H          -1.51757841159887   -0.11495632565034   -1.57169389338528
O           0.11589060347291    0.12474507625436    2.57328860943446
H           0.90200218514613    0.33911992118903    2.02510679120232
H          -0.80853710987104    1.11312509218017    1.78729839383672
H          -0.17109358476555   -0.75414150904175    2.27578161334618
O           1.84996801154295   -2.00508951469186    0.22999216452273
H           1.75038705387295   -1.40601088712055   -0.54191712222808
H           2.31259738038254   -1.45483395543366    0.87158337167957
H           0.33186210791578   -2.14084123569414    0.74424435769275
N          -0.89826541719374    0.21644994883573   -2.38588145397923
H           0.15380998116338    0.03877665116465   -2.06842546555854
H          -0.99156592550280    1.22324367268196   -2.49686422694032
H          -1.11357683697360   -0.27265215489202   -3.24809320220829
