    26
        -50.45620277  Gyration_radius:  2.42257555446 Dipole_moment: 7.326
 S           1.94060603514969   -0.24316138634657   -1.03375370993496
O           2.09932078203964    0.19412650464178    0.34184504464140
O           0.97520907562713    0.65751491144249   -1.73893049818941
O           3.13148287986808   -0.45949728291237   -1.77704092484698
O           1.14543654872244   -1.62885787590002   -0.98124031731410
H           0.70267202377536   -1.72531774021790   -0.11027592786752
O          -1.24792261869987    1.71220905872756    1.30100206540316
H          -1.76941707202897    2.45413006194180    1.60858355208619
O          -0.25446051307506   -2.04380159720510    1.25207865077331
H           0.00749280530835   -2.85981348346369    1.67959003511266
O           0.60124784588327    0.02171684447156    2.50744552824988
H          -0.08034017126311    0.68274269714933    2.30303705834735
H           0.06670168266194   -1.29248354823815    1.84712917787885
H           1.29574303277650    0.14683302487995    1.82446116100078
O          -2.24358550082033   -0.53156889923354    0.15161387334035
H          -1.98081471967414    0.32010257359480    0.55792112062244
H          -1.66765057956478   -0.59869076333666   -1.28418134350316
H          -1.72163619795442   -1.20374704012137    0.62217188963593
O           0.82534111682624    2.61109636532510    0.00242035550652
H           0.85905239918604    2.00231385120699   -0.76757384212407
H          -0.49140969082696    2.10015667693137    0.77257212142918
H           1.58193202683388    2.33285355170767    0.53034054241736
N          -1.11679707644940   -0.65964227452509   -2.20561643747396
H          -1.66581377698465   -0.33940124624604   -2.99623308177797
H          -0.78775670604655   -1.61228636620283   -2.34341926623921
H          -0.20463364127328   -0.03752660807105   -2.06394685717453
