    26
        -50.45620265  Gyration_radius:  2.42265688677 Dipole_moment: 7.329
 S           1.22598658778147   -1.80795162677326   -0.35291905599042
O           1.97783032375617   -0.75132587099493    0.30054082762909
O           0.55755531978753   -1.26556078671980   -1.57749808071025
O           1.91568216897592   -3.02499978935692   -0.59859822670381
O          -0.01413216247202   -2.13915024883316    0.59985757206075
H          -0.15894414565008   -1.39753726708113    1.22675309414688
O           0.06574178175678    2.44518271594915   -0.44880508614658
H           0.03019921386210    3.32806347458923   -0.81800163182589
O          -0.68070086802960   -0.19575325879459    2.30235420315556
H          -0.66587857242259   -0.50762338485134    3.20772407479012
O           1.30940160120868    1.33230362433367    1.77520026660960
H           0.09524803338474    0.44511814000727    2.20716740386468
H           1.73871878124737    0.60021612108703    1.28098588803737
H           0.94248363924596    1.91972625681026    1.09430520959972
O          -2.08622027213765    0.96024553197654    0.26715765519850
H          -1.37699156819215    1.56363957984183   -0.03673646161474
H          -2.07623303826508   -0.30949660631505   -0.61941028482856
H          -1.77559846463952    0.62243257428876    1.12452609764818
O           1.79948737527238    1.03331886746367   -1.78807636873256
H           1.32964263825390    0.17592085315157   -1.88132454032242
H           0.70640955679477    1.92809021761329   -1.01825115965694
H           2.49265943075953    0.83088418918511   -1.15000627573484
N          -1.92257051313209   -1.22772339472382   -1.15728566348291
H          -0.84074103943661   -1.25774768267448   -1.41775677006634
H          -2.50583146280046   -1.28289060605632   -1.98538611134665
H          -2.08320435491033   -2.01738162312228   -0.53651656557814
