    26
        -50.45620243  Gyration_radius:  2.42270366871 Dipole_moment: 7.333
 S           1.48617714342013   -1.23371861426486   -1.08032038468457
O           2.10779323723792   -0.34413545644398   -0.11552398091300
O           0.56775484898163   -0.45127667273185   -1.96623894845050
O           2.35234435804589   -2.09097856253271   -1.80974526404434
O           0.47160836076624   -2.15685044621885   -0.25955538432716
H           0.27337746028232   -1.74301136527047    0.60840372785836
O          -0.45598273024354    2.39063888459244    0.51195653818573
H          -0.70601028128341    3.31503779963654    0.50941872594118
O          -0.31797332743308   -1.15927965691975    2.08603255118932
H          -0.12411422168017   -1.76426716456597    2.80276407383891
O           1.26127404199582    0.86027688789438    2.07425061051394
H           0.30398463501552   -0.37064487761128    2.20044035613071
H           1.75069417992495    0.47201748560780    1.31639577480450
H           0.70296433418444    1.55536434400504    1.68893598068257
O          -2.17590497820126    0.30586205661812    0.72434911133248
H          -2.04582190764646   -0.52414000413617   -0.57667804851768
H          -1.69532647379933   -0.23877933423167    1.37097131961382
H          -1.63948839483604    1.12050095888792    0.63455324376707
O           1.31805651388738    1.98447371819642   -1.35380997555633
H           1.00870281268739    1.13670598202944   -1.74119785323798
H           0.18862327943650    2.27184552015599   -0.24461470237279
H           2.11563260305100    1.72593385732489   -0.87880911642978
N          -1.79500195558282   -1.12836125102827   -1.42994074270293
H          -2.46326822938748   -1.01321116634368   -2.18435413730174
H          -1.71786260962420   -2.10245848158991   -1.14722310777092
H          -0.77223269919938   -0.81754443105971   -1.74046037754997
