    26
        -50.45620262  Gyration_radius:  2.42266613696 Dipole_moment: 7.330
 S           0.71392084834351   -0.94380671482448    1.86988959304123
O           1.58161943491316    0.16716947088490    1.36658308837007
O           0.50075741540690   -1.91389989845428    0.81057963202796
O           1.14613696882349   -1.45151727783617    3.12393198387744
O          -0.68696914996087   -0.20994639125763    2.10267291278030
H          -1.26836857214338   -0.34851644649801    1.32377710044597
O          -2.38423467905716   -0.33743040220818    0.04766066473193
H          -3.21972198478211   -0.72396972337436    0.31177977603705
O           0.59115278615180    0.09530361952635   -2.41368247174290
H           0.96783011700634    0.26989906782089   -3.27661062610278
O           2.43585180870381   -0.90476663585228   -0.86775872520679
H           1.34081211437838   -0.24311632100025   -1.84309871799737
H           2.27064132452198   -0.42729592199680   -0.02559578255787
H           2.13134706380819   -1.79791053149696   -0.67239240699754
O          -1.04706105680809    1.77285361433787   -1.05314674601850
H          -1.71781328890454    1.13760672669902   -0.74938819096705
H          -0.32014205191472    2.14954015414911    0.26129945137800
H          -0.43807579567011    1.24687379176908   -1.61164822608913
O          -0.98191098075192   -1.94718254020106   -1.37190101440624
H          -0.40195700829747   -2.12191825549412   -0.59880564610555
H          -1.93476829670623   -1.01167160402066   -0.55669925831382
H          -0.47869315007976   -1.33781978774763   -1.93648888887041
N           0.17274235760953    2.24567092274805    1.21207224090984
H           0.85650192776822    1.37141283404133    1.29712174622570
H          -0.50799837088545    2.14277584297692    1.96088876234500
H           0.67840022852784    3.12166238730880    1.28895975920553
