    26
        -50.45620273  Gyration_radius:  2.422610569 Dipole_moment: 7.327
 S           2.18376688273884   -0.33683923350640   -0.11142350407712
O           1.42515233701365   -1.52123585650507   -0.47262511485815
O           1.70476769605212    0.18324979226488    1.20789837824231
O           3.59884766179072   -0.43875483483726   -0.17923024909271
O           1.73377630086379    0.81697158646350   -1.12201477808799
H           0.87908584050653    0.57709677774042   -1.54152218383943
O          -0.64029844697361    0.44138305741659   -2.28025145918846
H          -0.56612609127480    0.45428812060676   -3.23506030153896
O          -2.01630840912580   -1.00397447098782    1.05328646239532
H          -2.72227680994521   -1.28979428623868    1.63371762761597
O           0.25847974492085   -1.85463163176186    1.99912594085628
H          -1.16280671205079   -1.31187746625268    1.47609964869293
H           0.58293376870490   -2.47209828877516    1.33427656523337
H           0.83439028241123   -1.06970053788569    1.86960089025748
O          -1.02156396777887   -1.92652282353543   -1.37408011334569
H          -0.85360131532655   -0.51245837324816   -2.02229127753311
H          -0.08538454374614   -1.96305337074023   -1.07953691542492
H          -1.53676528230308   -1.75713852574581   -0.56837384739255
O          -1.78221867079706    1.47217681116340   -0.02469923836955
H          -1.55023334631909    1.23292958282585   -0.93830390386022
H          -1.94393858299159    0.61728673173504    0.42526175810783
H          -0.46181489446696    2.07759738534343    0.51203798943534
N           0.53136459098573    2.37105102167576    0.80123545045512
H           1.01554421677600    2.77032906754027    0.00069621960981
H           1.07289534714963    1.43065415282679    1.04961962666385
H           0.52233238318539    3.01306562241735    1.58655632904363
