    26
        -50.45620254  Gyration_radius:  2.42271620149 Dipole_moment: 7.331
 S           1.66556319610827   -1.35844636830648   -0.52732034081174
O           1.69061884128907   -0.97629523787719    0.87339046455431
O           1.57129676721277   -0.13237505582597   -1.38087951712052
O           2.67827959743865   -2.25353218870909   -0.96388092063162
O           0.25430306531279   -2.06530763221661   -0.78047792226752
H          -0.37027964947011   -1.82822632685300   -0.06095744404982
O          -1.64955510719478   -1.45129569983774    0.98528417208933
H          -2.00288541286460   -2.23814341318556    1.40157009573024
O          -0.36489222334750    2.21461186266472    1.07129916213226
H          -0.44362408162496    3.14262003110152    1.29400234351796
O           2.10432434788563    1.70584741503268    0.41017258198770
H           1.98513546933269    1.12279773291438   -0.37111635359783
H           0.58310314136395    2.07457137871474    0.78190637440171
H           2.41720683297453    1.09655908736324    1.08799578432087
O          -0.13905900227229   -0.11683999805361    2.56950470170994
H          -1.12678132126000   -0.96026797483208    1.69772912491280
H           0.65299255153077   -0.45237923534722    2.09550041676918
H          -0.26110160492398    0.79278268571961    2.25168521424679
O          -2.11424986379032    0.81857893095415   -0.45856699484936
H          -1.33614767337056    0.32603872283792   -1.70360922889455
H          -2.19102421396225    0.00985056455989    0.07601326894828
H          -1.53394766509443    1.41028418868972    0.06351850319880
N          -0.70250157512904   -0.10611364597143   -2.45719957915496
H           0.33096088726356   -0.08273606697387   -2.04433454330826
H          -0.76285124652069    0.39680019190120   -3.33606850173159
H          -0.93488402688709   -1.08938394846367   -2.57516088210109
