    26
        -50.45620276  Gyration_radius:  2.42260621449 Dipole_moment: 7.325
 S          -0.02005790132749   -1.25314074176841   -1.82308311276848
O          -1.35530592925634   -1.09967366357025   -1.16423023662190
O           0.95381908881504   -1.71337480490788   -0.84916503013561
O          -0.09154632967466   -1.97358293907692   -3.04509381361439
O           0.36764643135704    0.25723404625481   -2.17470688582882
H           0.95602081847876    0.62041853525453   -1.47760910079952
O           1.85704159930657    1.49738304571964   -0.34088783648163
H           2.67265289583780    1.82563594789429   -0.72076827665030
O          -0.18325176316452   -0.24859273690812    2.46717535506182
H          -0.46327772628329   -0.36112525287881    3.37597560381509
O           2.24220299197748   -0.55786396562104    1.14285865084266
H           1.52571139251486   -0.47808342233620    1.79366626733701
H           1.88418623276073   -1.13511148912877    0.43356532205464
H           2.11300494717250    0.73720288010426    0.27424697827461
O          -0.89130684625178   -2.34745952504194    1.09382697699021
H          -0.51336308891373   -1.05215330382689    1.96979057213334
H          -1.22498998917906   -1.94050433268046    0.26458083122849
H          -0.06028305449308   -2.74935568250948    0.81748733676434
O          -0.45199859149312    2.02576501252689    1.01711694051645
H          -0.41649621321910    1.24973698224110    1.61376949816737
H           0.42749649523798    2.06280914982532    0.60387981508915
H          -1.37528866266634    1.69323327416820   -0.18078069037841
N          -1.89310610356107    1.35567126022099   -1.06061553274916
H          -2.88087133013349    1.58438181448412   -1.02904269557413
H          -1.73061415859777    0.25565128031113   -1.11360266559325
H          -1.44802521524473    1.74489862124933   -1.88835428107897
