    26
        -50.44495310  Gyration_radius:  2.70039892862 Dipole_moment: 4.628
 S           1.59859626715921   -2.40719096895658    0.64093820495529
O           1.06707045280979   -1.86532476829604    1.90529467551126
O           0.51801784854936   -2.83909083742144   -0.22812840914847
O           2.52541649645670   -1.50092266708142    0.01082954585869
O           2.40523218853555   -3.70427332321949    1.04582482419222
H           1.72057008083959   -4.27226678514237    1.38540580627649
O           0.33561253526897    1.18313683128540   -2.12452722027423
H           0.38861811191022    1.50256876483929   -3.02532033055345
O           0.07409056681971    0.30817662749371    1.31296071732327
H           0.48413791332711   -0.59509679031827    1.70385251234332
O           2.05360572840349    1.06277584179294   -0.01057006823478
H           0.91277099746309    0.75708644873843    0.83908006156671
H           2.44819670481475    0.15811278537873   -0.00849442580807
H           1.65872677070147    1.16175887725183   -0.89769466118322
O          -0.97320191421731   -0.77794014058117   -0.71630176559859
H          -0.48877942439416   -1.63882984960913   -0.61977931585564
H          -0.49175967136213   -0.05241677058542    0.51882901844878
H          -0.52947169260594   -0.28867091625201   -1.43156975437692
O          -0.98784019421908    2.81153801252151   -0.54013825672612
H          -1.74433522916291    2.26567434299993   -0.20097883629018
H          -0.44048874149354    3.01616204732699    0.22066237369542
H          -0.19000191381075    1.85407308406584   -1.61223357594882
N          -2.91911593715192    1.16737188374390    0.38539755397665
H          -3.87516477247806    1.39060846008664    0.14100411055758
H          -2.88032786394389    1.00391045206128    1.38379634983894
H          -2.67017531824759    0.29906935793578   -0.07813912456570
