    26
        -50.45116906  Gyration_radius:  2.66155497662 Dipole_moment: 3.378
 S          -0.61508786571489    0.03770337913408    0.91555174102105
O           0.32333132681020   -0.68451468315437    1.87483844481715
O          -0.17766050268349    1.40344903242477    0.73649360039733
O          -0.41034563183351   -0.73229382662736   -0.39797509843867
O          -1.97616942797213   -0.10773034182705    1.34264982943462
O           3.74305532497960   -0.24979239118859   -0.10862434994427
H           3.16613564606186   -1.05005969662149   -0.22522764309611
H           4.59546670441107   -0.56521913120551    0.19589957000150
O          -3.98749339137758    0.21597197976707   -0.35723306677093
H          -4.61928596624120   -0.48990668650117   -0.21069410157218
H          -3.33330521050196    0.15085399352977    0.36967997482641
O          -1.40550656014668    2.66983731073930   -1.27215256785657
H          -0.87102311337747    2.33229490263680   -0.52643493279342
H          -2.18748300752959    3.06688942117196   -0.88275398609532
O           2.25798033599937    0.87956872075804    1.75158334633682
H           2.87073009979140    0.54098537687079    1.04565577359686
H           1.68034473037430    1.53135132126273    1.32913962587595
H           1.19122960606457   -0.10515455467562    1.90707737664477
O          -1.96268802110928    0.21490580195394   -2.07773033985247
H          -1.72435853540334    1.17243070562258   -2.02532808907283
H          -1.06020673081545   -0.36278895385230   -1.17219099445854
H          -2.83050823410890    0.15293873836764   -1.61509559810582
N           2.05563032630464   -2.33907332457102   -0.16818624406596
H           1.18946470219086   -1.84747056545546   -0.37318834449403
H           1.95629139257514   -2.72440726497603    0.76363883963950
H           2.13146200325650   -3.11076926358614   -0.81939274598231
