    26
        -50.44480593  Gyration_radius:  2.71548885908 Dipole_moment: 5.495
 S           2.55113749696575    0.46300018353657   -1.49683516747535
O           2.81074055878371    0.93127105874041   -0.14535708680411
O           1.94963128512278   -0.88457143637065   -1.46764130438739
O           1.79385176810887    1.36866869910664   -2.31741817489647
O           3.97399000099301    0.28798201066415   -2.16890710685830
H           4.53657493986021    0.07941233151585   -1.42909597899278
O           0.49763503173671    0.85602087784794    1.00634991482594
H           1.42431992498846    1.05898228134726    0.72398763154121
O          -1.51805035734339   -2.17471155596180   -0.32759704123807
H          -2.01091955876635   -2.92165354533922    0.01285780252238
O           0.78989124369201   -1.60121446083232    0.57999731651719
H          -0.12379489625108   -1.91261759417554    0.22929858158659
H           1.36505224040920   -1.38540082651115   -0.30076757912717
H           0.63814929957906   -0.63263287116316    0.94143559416074
O          -2.85870476737062    0.00510061976498    0.07194216160480
H          -2.09034674772133   -1.36039222990896   -0.18209247485728
H          -2.64412301698989    0.34856186490791    0.97464075125551
H          -2.39684048157846    0.58293450026299   -0.54758746439909
O          -0.57294741700844    0.69716627238983   -1.44435162727850
H           0.21977480023512    1.08023941817767   -1.88389277400521
H          -0.61105710282050   -0.21031348534103   -1.76268141990520
H          -0.03206143619636    0.97794046169622    0.18644063936267
N          -2.05114498928349    0.97290880683753    2.47399744226012
H          -2.14013894023491    0.39492294852853    3.29985127982583
H          -2.43990390159733    1.88211500815852    2.68988367500405
H          -1.06071497698567    1.09628064203661    2.28354237974123
