    26
        -50.44480529  Gyration_radius:  2.71561879143 Dipole_moment: 5.491
 S           2.85542238264339   -0.84452520645492   -0.31044554768660
O           1.78548803464729   -1.86168255093842   -0.29778291907376
O           2.62398500841127    0.11941513598167   -1.37348249572032
O           3.06587293836857   -0.27304699609680    0.99181797911973
O           4.17931557217285   -1.61485191522112   -0.71100404493450
H           4.15772781810619   -1.59975351082524   -1.66315665433737
O           0.28470040575378    1.08886392089112   -0.85307772470827
H           1.21437365697437    0.93153804400292   -1.15414795754009
O          -1.96856282724972   -1.69158613559816    0.63577869203258
H          -2.83616217470533   -2.07111536659977    0.49454856465602
O          -0.38073971613290   -1.28857313727075   -1.31257684494030
H           0.56873976727416   -1.63103347745343   -0.94473039199599
H          -1.05058589651602   -1.51703575323552   -0.56838027460463
H          -0.23755197623590   -0.25529139729689   -1.25543945495334
O           0.55174925004661    0.06479658138193    1.60829227276102
H           0.27041013861853   -0.85474034588440    1.64790952749329
H           1.53316580677795    0.02076031230542    1.55197245828415
H           0.32082944432805    0.93473419502530    0.11782447848012
O          -2.21167536118055    0.66367810467176    1.68605741034878
H          -1.31160195425568    0.77608024310555    2.01512814857597
H          -2.31982528750709    1.32720639098491    0.96016699433897
H          -2.11205297655725   -0.79772287971037    1.07419192196536
N          -2.29411152295064    2.42571485981075   -0.37473752809577
H          -1.39618777428978    2.22518419483175   -0.80603373957747
H          -2.28355941582903    3.39216098823618   -0.07416525399470
H          -3.00916331061810    2.33082569128852   -1.08452762590933
