    26
        -50.44495256  Gyration_radius:  2.70045696582 Dipole_moment: 4.630
 S           2.81930033518958    0.15053810658285   -0.89339870284541
O           2.68946911454056   -1.06205193054113   -0.10453422832089
O           1.96512197251270    0.08576236103321   -2.09399928566802
O           2.60460070714208    1.36079229650634   -0.14083106344083
O           4.30317144781129    0.18620827626824   -1.43535996401542
H           4.38501322521092   -0.66217479381425   -1.86006562200873
O          -0.33951942823684    0.32583070367512   -1.26253744377034
H           0.60397775741802    0.23632552307484   -1.75121807231632
O          -0.61534900419262    0.70583660740188    2.26933086091537
H          -0.76566018399719    0.83650915577431    3.20564015041276
O           0.20540706386455   -1.30478646222745    0.59015852055539
H           1.17961144951413   -1.33215054899348    0.40223329971775
H           0.09091004002942   -0.73554296716272    1.37183059878633
H          -0.26153717579859   -0.41151509010129   -0.53251784969359
O          -2.84473873330685    0.59380263054051    0.88094458011895
H          -2.80128259856855    1.24319147931483    0.17623618560369
H          -2.81728326382834   -0.29646449653426    0.44271809866340
H          -1.51027032285257    0.66212104122922    1.83783947967744
O           0.19000316772525    2.28473144479250    0.19532118548578
H           1.16197458817705    2.15165543593301    0.08729277461441
H          -0.23292512141530    1.22995089302221   -0.71600486951171
H          -0.01558259656486    1.92306693933608    1.07817975896830
N          -2.57213306131211   -1.80349447082548   -0.33079501057006
H          -3.25901790809012   -2.51420591383890   -0.11464769921696
H          -1.67629856306368   -2.10917187601000    0.03612958083616
H          -2.48696289774755   -1.74476435433989   -1.33794525294471
