    26
        -50.44480557  Gyration_radius:  2.7155913008 Dipole_moment: 5.493
 S           1.63847338956914   -1.55968231330428   -1.96134256000516
O           2.30652387540200   -0.79700522098334   -0.88833132896524
O           0.70507858557969   -2.51885871165384   -1.39423323153369
O           1.08374698884259   -0.69471709019845   -2.96674781883248
O           2.77354523557743   -2.42229307736801   -2.64979346362914
H           2.79782539566382   -3.21109359754833   -2.11645493824265
O           1.02447099853633    1.88026591695287    1.59734622352847
H           1.14937714941017    2.28538062172864    2.45584129752053
O          -0.91625778210054   -1.07435852803730    0.00845774985465
H          -0.48529070403622   -1.77254197216434   -0.54503982397479
O           1.19368520170144   -0.64212239845655    1.29975765708373
H           0.24255201052286   -0.87383669492528    0.93467802649035
H           1.77278713982563   -0.75589725176229    0.40218742210233
H           1.18235427931298    0.36875728957479    1.48060066545593
O          -1.35494545386477    2.41207445415980    0.72323941884093
H          -1.22407870323833    2.20099831246693   -0.20915665318611
H          -1.98179181908850    1.72979254171353    1.07032240720942
H           0.10446359224302    2.14152148904432    1.28560619414957
O           0.01031276812067    1.04532019629147   -1.34324412698202
H           0.33587196438035    0.50208471829075   -2.09635308870311
H          -0.80977671312208   -0.25240045107883   -0.52128544065836
H           0.80748674981931    1.40739794549663   -0.94357863785432
N          -2.95363123305874    0.38389927451676    1.55323418672131
H          -2.48401219579005   -0.39741182629768    1.10432058094166
H          -3.89240159616207    0.43677606412872    1.17864125940163
H          -3.02636914419029    0.17795031946784    2.54132801327939
