    26
        -50.45620275  Gyration_radius:  2.42254684231 Dipole_moment: 7.324
 S           1.48511502172359   -0.09169153197669   -1.63686960262268
O           0.26261343956149   -0.92417317176538   -1.86726254044245
O           2.06416699571541   -0.42282336695098   -0.34698666178925
O           2.36564193423515   -0.09087229565919   -2.75137917276522
O           0.87927988237842    1.38106518626576   -1.49847684176273
H           0.77097932773033    1.60828327500534   -0.54947140115884
O           0.36847369579334    2.16179406162066    1.00112883347982
H           0.83124447717017    2.97311217235063    1.21310712135241
O          -0.87445500787250   -1.42210169143574    1.84204528150008
H          -1.32301785784305   -2.06350566097291    2.39373953692439
O           1.41606305995246    0.12400097281419    2.15200259005000
H           0.80602485371419    1.43145984175614    1.54602752055283
H           0.65037482920705   -0.46222139041782    2.26750029647062
H           1.82216595342890   -0.14609285556974    1.29963093732096
O           0.54423035234921   -2.68285323597942    0.05593041527593
H          -0.38060544484811   -1.94607800565332    1.14656817936101
H           0.36708837642524   -2.15286618689596   -0.75175050085187
H           1.45681697210336   -2.45619613536083    0.26654966805576
O          -2.00126659131082    0.81846262110943    0.81421825487560
H          -1.69144027019038   -0.02018843292470    1.21444188036998
H          -1.29333064445201    1.45913919754776    0.99876350906082
H          -1.94623883134779    0.68595588766695   -0.72759104478255
N          -1.73998868849102    0.59600673783425   -1.77905074407429
H          -2.55158861139956    0.27749011616122   -2.29756493883996
H          -0.89193761034221   -0.11950218377947   -1.86924867969838
H          -1.39640963339096    1.48439607521067   -2.13600188586314
