    26
        -50.44480583  Gyration_radius:  2.71561887782 Dipole_moment: 5.490
 S           1.66359917976175   -1.87050582538257   -1.64225549120010
O           0.20496354865166   -1.80187346724240   -1.85826291435536
O           2.26518264961186   -0.56026021787686   -1.82773540415407
O           1.99018060634026   -2.51773340729530   -0.40070532733016
O           2.23276562703900   -2.77180090100874   -2.81295165216794
H           2.38656410047102   -2.14351784378795   -3.51217387375321
O          -2.66119286569909   -0.17120371382966    0.16973932184532
H          -3.53843954140228    0.21053187055616    0.13142256252650
O           1.03744827154223    0.94861180440725   -0.12502855264231
H           1.68474066700874    0.52831366063634   -0.74464421373965
O          -1.50032780755879    0.53749493538746    2.37412637146959
H          -0.79776882107927   -0.12359288055523    2.39420637902644
H          -1.05008827591028    1.40700560177125    2.23210292834677
H          -2.26550742237265    0.10187564852761    1.05326231268701
O          -0.91296852751681    0.37369879942887   -1.59855673808528
H          -0.15394922493561    0.79696071067205   -1.01863676904294
H          -0.46982656929287   -0.57888026839947   -1.82247566999945
H          -1.67624185555111    0.16289031348126   -0.94469094580929
O           0.21604419633593   -1.29998861891135    1.07753688515806
H          -0.58980880266024   -1.64657065412756    0.68156280341891
H           0.93689301131490   -1.84602975470183    0.68957014893424
H           0.82026673851217    0.23181486925366    0.51273398116770
N          -0.13058212126647    2.81455999290949    1.82880904639211
H           0.48560564269679    2.47118339057564    1.09746224005955
H           0.44755351440356    3.12709959014791    2.59853003392810
H          -0.62510590842749    3.61991637542546    1.46705253736854
