    26
        -50.45620271  Gyration_radius:  2.42261572677 Dipole_moment: 7.328
 S           1.37997340566052   -0.55206639762654   -1.63903236401706
O           1.98848020088878   -0.71092750021359   -0.33009293262045
O           0.79604518775256    0.82103065686280   -1.75806830597106
O           2.17462327912632   -0.90885078557002   -2.76095985999550
O           0.08040885567687   -1.48279036009319   -1.65199115622828
H          -0.17671333929643   -1.70782784446023   -0.73155273807951
O          -0.06623845430991    1.48005559821544    1.99723085380834
H          -0.12898154875858    2.20314972596276    2.62187541800611
O          -0.88381507279440   -2.10975518166925    0.75551029056257
H          -0.93399573165786   -3.05900494587291    0.87251221478710
O          -2.16543978431981    0.30096372564716    0.75176315804931
H          -1.91553329966320   -0.63302743733597    0.85629779426430
H          -1.47519833453277    0.80098041323821    1.23447644488265
H          -1.97957657802982    0.53214142666090   -0.76806882905052
O           1.03398422706980   -1.07139332529093    2.10342339833865
H          -0.14991134729147   -1.78364818160002    1.36951202304209
H           1.56004233355972   -0.97677712328526    1.27951195909551
H           0.69337216406778   -0.18181437185791    2.29297439506610
O           1.88538674838121    1.95815741392154    0.33738759342253
H           1.48915368049064    1.68814618913505   -0.51977523802390
H           0.66176555760035    1.72546636402833    1.35544231135671
H           2.52656780005902    1.25935788768942    0.50797557501328
N          -1.70939883578618    0.59884379132579   -1.80671365181341
H          -2.20410021073754    1.34815375230065   -2.27872257043321
H          -1.87287720629151   -0.29715381559365   -2.25967210440060
H          -0.60802370686467    0.75859030548171   -1.83124367906254
