    26
        -50.44495327  Gyration_radius:  2.70044656989 Dipole_moment: 4.625
 S          -1.79152609123143    1.91245709695471    1.37764793920482
O          -1.60309064215557    0.74832265462428    2.26325408167734
O          -0.53116873221227    2.59960961511310    1.15666265691046
O          -2.48450892310973    1.56221087227698    0.16341439274647
O          -2.71861482230210    2.90710243001559    2.18264946692709
H          -2.16842334449026    3.14413753461109    2.92288909798038
O          -0.41313469397261   -0.91853944614380    0.89732109506877
H          -0.94460252019625   -0.29913857471853    1.58374281900526
O           0.29844762331290    0.11593980135019   -2.43437842349167
H           0.50176933522947    0.31140087449254   -3.34908393649320
O           1.19133205367635   -2.23543469938262   -1.66919731229012
H           1.80319876115294   -2.03305213970459   -0.91415919022105
H           0.46205930873797   -2.73640809699606   -1.29846330205137
H           0.68664708265505   -0.77845942322502   -2.23867974611568
O          -1.93066039237499   -0.66624065299806   -1.07117808325298
H          -1.07496673539212   -0.96642580168136    0.06780943178580
H          -2.34385157209796    0.14818203933426   -0.69703281803384
H          -1.30696053357762   -0.34239557003634   -1.74848004655534
O           1.10945517381021    0.91903245693793    0.06277829705792
H           0.33479177404446   -0.27105718950408    0.57601293857865
H           0.89441532170650    0.91442617470701   -0.88683801204622
H           0.58742009153310    1.66008348245620    0.46682423919004
N           2.72762854804472   -1.53824569805286    0.43858829302613
H           2.60070164488440   -0.53100168228396    0.44780368031476
H           3.71921575599839   -1.72917559268825    0.37546937685578
H           2.39442652836483   -1.89733048571764    1.32462307387389
