    26
        -50.44495289  Gyration_radius:  2.70058808906 Dipole_moment: 4.624
 S           1.91597370733565   -1.44503665048879   -1.73458369786157
O           0.77291385876847   -2.34045092100643   -1.47601948146657
O           1.48949316199707   -0.26625957050555   -2.46812020778693
O           2.65359762699508   -1.14808613051343   -0.53252165326321
O           2.87646372534922   -2.25597252081340   -2.69207533337203
H           2.34576341688920   -2.35407899914746   -3.47665885337563
O           0.73989623998348    1.93667979474865    1.31427573317454
H           1.04087985020469    2.77476979835989    1.66548956399079
O          -0.56875686421536   -1.19881930449605    0.24340251867956
H          -0.07054839383019   -1.80468885464551   -0.47912646215927
O           1.39330853666692   -0.68372766829922    1.70205212089249
H           1.38045638061103    0.29209103631120    1.69727342372008
H           0.18324637503140   -1.04795064564569    0.97793673566322
H           2.03395221196561   -0.93200401624351    0.99355184113863
O          -1.56198915238074    1.17000015772850    2.32678026437877
H          -2.16159042243223    1.08816837074148    1.53992386697626
H          -1.46211649620155    0.28492227397879    2.68302937562531
H          -0.13564434629847    1.74270399245433    1.74400709657143
O          -0.28710249201681    0.96230268671635   -1.03722369916572
H           0.21107441722650    1.49207744502286   -0.38962359292288
H           0.37876762490294    0.60175554436360   -1.67873028223411
H          -0.61231038065651   -0.28538856849705   -0.25257801848774
N          -3.03376337004933    0.87934727499987    0.08201539748216
H          -2.35747552171303    1.13652302901039   -0.63014496180812
H          -3.84393611796717    1.47594709908977   -0.02437384233811
H          -3.32055359595790   -0.07482466334248   -0.09795787255327
