    26
        -50.44480490  Gyration_radius:  2.71566276824 Dipole_moment: 5.495
 S           1.87421338515897   -2.28111518938529    0.49891933376701
O           0.49964179879567   -2.54823254168003    0.03063449999244
O           2.56808394624557   -1.41469012197348   -0.43935075871322
O           1.89718011327436   -1.83766387853505    1.86609499911853
O           2.62863791136365   -3.67156898070373    0.43843074426516
H           2.93537605938719   -3.71193851615158   -0.46247990641320
O           1.09174446959506    0.70470203076996   -0.55829430883660
H           1.83198268327438    0.04799422993463   -0.56782109413679
O          -2.64132269761673   -0.30271486010572   -0.26183534034128
H          -3.46734507575184   -0.15614633124930   -0.72334422509433
O          -1.93894356905972    1.86397657279213    0.97098639388001
H          -1.42366451103172    2.43276779717311    0.34654768212432
H          -2.42824889843095    0.55008396375872    0.22736372875812
H          -1.29252866355712    1.48824123068560    1.58095180053330
O          -0.08538633078827   -0.14730149292489    1.69361095778817
H          -0.80568319046424   -0.76024062327039    1.51531363040308
H           0.67202805121433   -0.72237785158454    1.94599054375617
H           0.70715201562975    0.61574981126111    0.34256981735001
O          -0.53059407364810   -0.94962892691553   -1.52865525174967
H          -1.42551108799115   -0.72984869996079   -1.07487497027235
H           0.10913371087661   -0.16053394872282   -1.28754733282251
H          -0.10081874184934   -1.73136553722357   -0.92883424213840
N          -0.36683704805709    3.25447576757310   -0.74732162913108
H           0.05041457896337    4.07675703461078   -0.33004078444771
H          -0.73032339146281    3.51871449008063   -1.65398396004566
H           0.37161853566745    2.57190458190085   -0.89303031744959
