    26
        -50.44495268  Gyration_radius:  2.70033848593 Dipole_moment: 4.633
 S           2.76805657285928    0.98005284343328   -0.38125409652743
O           2.09854668138677    1.93030552431361    0.48948130772803
O           2.83959578026476   -0.34901458637071    0.25417299565447
O           2.21312583510062    0.91583539549988   -1.70982808799635
O           4.26698652516358    1.46163995915256   -0.51660464607296
H           4.53915111034705    1.53683428287951    0.39286880026264
O          -1.84221657684760    0.96471684858305   -1.30510256401157
H          -2.53246726219973    1.48678591993134   -1.71414408252728
O           0.53783177533760   -1.21991065182444    0.19624820247668
H           1.57279189696089   -0.97153535353138    0.26260144788089
O          -0.29052308536232    1.04362595617292    0.95771363376523
H           0.58592598580973    1.49845959122723    0.85805271357703
H          -0.82751050173794    1.30736490556333    0.18941044743747
H           0.09826881313597   -0.37270456913249    0.61010824999534
O           0.17662969394414   -0.63440603758995   -2.20563614490955
H           0.34161497184572   -1.12035433772355   -0.84269467085589
H          -0.55514406201607    0.00745127114969   -2.13506640734093
H           0.99496008451471   -0.08336480762276   -2.23483705636959
O          -2.72968497994764   -1.29347170051430   -0.29353482379764
H          -2.21474714689530   -2.01660034439654   -0.65710619843067
H          -2.49582010863178   -1.24078386285846    0.66974843251780
H          -2.27656564739811    0.14638758115946   -0.94360274089702
N          -1.92463410930672   -1.05609335911369    2.27263893997626
H          -1.46977335676503   -0.14871032909021    2.25295601742094
H          -1.23152610152283   -1.74057088069822    2.54858965009178
H          -2.64287280808829   -1.03193924858959    2.98482068108859
