    26
        -50.44772981  Gyration_radius:  2.5129872571 Dipole_moment: 2.774
 S           0.77364191452439   -1.82821818579511   -0.72426325099139
O           2.08681938009724   -1.35225068671582   -0.25551442643968
O           0.09024005218737   -2.59466775381610    0.29033138355090
O          -0.01802980058063   -0.75789714791847   -1.28731843327945
O           1.09982165154946   -2.82237735436035   -1.90973967512131
H           1.54270825260002   -3.52009106149878   -1.43881620226734
O           2.17071509362259    2.55208389514265   -0.63304742315819
H           2.22664785275816    3.46614845835445   -0.35041091524158
O          -0.26359847633135    1.07939633273102    1.85501353069195
H          -0.36524358077523    1.32727088696058    2.77526609216501
O           2.14567733672406    0.68362674699609    1.10047746777863
H           1.18883674918971    0.80777134470204    1.44703591202398
H           2.14976050484874   -0.23917038911676    0.51923237610898
H           2.29070221572703    1.43259570934559    0.41440761561311
O          -1.62898494054526   -1.02348547307785    1.55491861881997
H          -0.82140157376701    0.21909127664400    1.73950013725965
H          -2.24455761134638   -0.82866623155336    0.80861131645454
H          -1.01756831107263   -1.69838783815272    1.19146864350804
O          -0.33599094037121    1.86917842356057   -0.85038443715139
H          -0.25067828672565    0.94902256293745   -1.16602866789564
H          -0.57905482622681    1.78465716722785    0.08204755337767
H           1.21799431326823    2.38130866360809   -0.87741638779023
N          -2.86195041934935   -0.49702545989270   -0.79707680399164
H          -1.94095710461823   -0.66475559102827   -1.19996368273150
H          -3.15003972515456    0.43287550530673   -1.07538118137406
H          -3.50550970912256   -1.15803381475454   -1.21294915713376
