    26
        -50.44495312  Gyration_radius:  2.69988698726 Dipole_moment: 4.626
 S           1.33288763644918   -2.63817824917071   -0.15677135798962
O          -0.12153008225150   -2.86726884990011   -0.07096710512733
O           1.66933311575954   -1.92204398467695   -1.37465225154077
O           1.85678318031166   -2.02993020249340    1.04019918592857
O           1.97760894672056   -4.07566523424419   -0.27902472482836
H           1.64027920035566   -4.37963013151092   -1.11610734362106
O           1.26426584901476    1.98739063007669    0.69747757487909
H           1.83693191739786    2.74542766149093    0.81471009755925
O          -1.09758915062085   -0.66070537711941    0.41656184351247
H          -0.80262093246268   -1.66883535765451    0.23100821919822
O          -1.28649436373551    2.59196497250152    0.89775791145301
H          -1.68743707035286    2.02065640153716    1.55590487306894
H           0.32977219176437    2.31847333906983    0.77526379960267
H          -1.67344482310226    2.32490864389446    0.02353288787856
O           0.52659059256491   -0.13665305035638    2.24073972301924
H          -0.53228689735001   -0.40921749774557    1.28041593278587
H           1.10881956685842   -0.89424081331552    1.99322351329429
H           0.97140070251417    0.65144291371521    1.87502258305419
O           0.41976256214083    0.34752066019190   -1.33694184266681
H           0.95662461915297   -0.47547177447652   -1.47590375351736
H          -0.60634198002889   -0.16030125567587   -0.35119959155268
H           0.96118043534125    0.94155470680776   -0.78749867217141
N          -2.21202249587887    1.70825630600771   -1.47974708274792
H          -2.86954268149828    0.94204498761622   -1.40443903558597
H          -1.36124335020708    1.34325249436481   -1.89648254190762
H          -2.60168668886204    2.39524804125511   -2.11208284192891
