    26
        -50.44721202  Gyration_radius:  2.51044679711 Dipole_moment: 3.934
 S           1.22316407046368    1.73026842382844    0.17067821590564
O           1.58488154947014    1.39989080229351   -1.21992651334286
O          -0.22116708736534    1.68684476858828    0.34127462574292
O           1.94264577682184    0.95480914659876    1.13978855991111
O           1.65241676561160    3.24053183265680    0.34069369527936
H           1.24423661705927    3.62990639387864   -0.42522303445761
O          -0.93200620187783   -0.52742221425442   -3.22544068554346
H          -1.41729287260191   -1.26282028477801   -3.60269320321986
O           0.15023918904408   -2.16633627366090   -0.05643288554095
H           0.37282128108742   -3.09736471652801   -0.00962973364693
O           1.26025901709944   -0.90298506727352   -1.98150646765085
H           0.46175136121897   -0.77116244920481   -2.61178636029461
H           1.47529332672596    0.10862699886193   -1.63675696514523
H           0.88659671177777   -1.42095153623610   -1.17905223836268
O           0.74231411836353   -1.17076876416321    2.18527768361219
H           1.32475374674073   -0.42913944397384    1.92326905020829
H          -0.08415425825482   -0.72569683606109    2.49639228976174
H           0.39952458570255   -1.77803429408878    0.86750374013014
O          -1.74743708877415   -0.19648284202518   -0.77135623943751
H          -1.38026456636022   -0.29842325819858   -2.36363013738699
H          -1.34339238399633   -0.97281900984022   -0.36041761487042
H          -1.27179964041738    0.57120746110007   -0.39149985086249
N          -1.41926591914299    0.37777267388207    2.62580875451332
H          -1.47891882137444    0.91226483972959    3.48304889268589
H          -2.35953328099126    0.10908198606198    2.36325398826087
H          -1.06566600611072    0.99920165252509    1.89836245372079
