    26
        -50.44480512  Gyration_radius:  2.71546711862 Dipole_moment: 5.503
 S           2.11797659259105    1.87428217428639   -0.98291974654548
O           0.95577534297124    2.40151936047249   -0.24065004709624
O           2.82337748697705    0.88709969409582   -0.18266277358266
O           1.75611876654036    1.43819972277961   -2.30409121098239
O           3.11728707475988    3.09185420639361   -1.14190395287628
H           3.61705945727322    3.06790154263829   -0.33136786033990
O           1.03336230431021   -0.90471750079644    0.33513301827941
H           1.86865854952395   -0.40394697105164    0.15882593522654
O          -2.41353937168001    0.80824806902184    0.81306642183853
H          -3.13004104627711    0.82223959816369    1.44799609112195
O           0.00754020510571    1.02890206113690    1.56675043753372
H           0.43558030203737    1.71398532883983    0.85838864274211
H          -0.99021238604159    0.98851059748664    1.32612799774889
H           0.41704709179919    0.13130800470320    1.22394898511767
O          -2.42199166492802   -1.44942215968673   -0.45608185697208
H          -2.47884432781324   -0.06771828935887    0.32289084249418
H          -1.86463637402293   -1.20458562276413   -1.20472396780185
H          -1.90057416258969   -2.10827057520129    0.06624453181550
O          -0.42490803215603    0.16535575818816   -1.64213555949579
H          -0.95834804554363    0.90620562061930   -1.33752290000419
H           0.35421226135908    0.58298691721850   -2.07436664484880
H           0.48491406497419   -0.74043834697123   -0.46462001325199
N          -0.80651257786758   -3.11978711564310    0.94391072437340
H          -1.00539313219226   -3.30454541536384    1.91876368733721
H           0.06262691038224   -2.59564514048017    0.89567351451493
H          -0.65653527963589   -4.00952152872054    0.48532567353299
