    26
        -50.44495286  Gyration_radius:  2.70007292563 Dipole_moment: 4.616
 S           1.36975431446718   -2.15239591031234   -1.49832662912469
O           1.95437002914454   -2.13257262914434   -0.16892887452313
O          -0.06515557696145   -2.48647956524752   -1.43305823517301
O           1.61186077200293   -0.95194153168067   -2.25835206411138
O           2.04477318142494   -3.35047808738889   -2.27664595875915
H           1.90034035872221   -4.08395552869759   -1.68682121835046
O           1.04403938184691    2.21155216369762    0.23450009243795
H           1.56290392553548    2.99026688225619    0.43617733302594
O          -1.15524113240049   -0.48322558144438   -0.50576561010158
H          -0.81361526433782   -1.39774327110345   -0.93426169726266
O           0.69817445795658   -0.33369657728915    1.20797917785420
H          -0.51401684933970   -0.38869334429764    0.30707201334727
H           1.26283871167085   -1.03857083328619    0.79635930187390
H           1.09906260146320    0.51988419497789    0.96631153808899
O          -1.49514671430843    2.48933307510901    0.85880126317362
H           0.11075561035365    2.40764268875450    0.51620365159025
H          -2.02870236937526    2.28495357961340    0.08821890496552
H          -1.66849773542140    1.76748985340900    1.51769103134045
O           0.02154253171057    1.10183218381187   -2.03632854025197
H           0.65670945964369    0.40580183553097   -2.32960414561537
H          -0.79674161548404    0.24405195036151   -1.19286230750668
H           0.52099196837439    1.64345087626707   -1.39607003461983
N          -1.84048688618381    0.40810411216487    2.54375249616386
H          -2.49625237498231   -0.28831250360118    2.21214180144334
H          -2.06969481944728    0.62185858121467    3.50578259667556
H          -0.91456597625637   -0.00815660372673    2.52603412328317
