    26
        -50.44495319  Gyration_radius:  2.69961703803 Dipole_moment: 4.623
 S          -2.32540237344159   -0.34738756022717    1.79662414393962
O          -1.24193001217903   -1.13892445561378    2.35256807587539
O          -1.97118954569866    1.08407997517890    1.78115214598603
O          -2.78020204155757   -0.80646555144811    0.50835268408775
O          -3.54066843617095   -0.46887263818733    2.79927570618360
H          -3.14580654032734   -0.21844214471298    3.62889774878895
O           0.53158637531645   -1.70763835277492   -1.68474716385185
H           0.78528750647876   -2.47065805528328   -2.20412016214472
O          -0.28623479956170    1.31629069204716    0.00133895125637
H          -1.01822439753511    1.35663175845537    0.77541972986356
O           0.85248850557315   -0.76519265991655    0.87455536713879
H           0.75108103084157   -1.36062853231807    0.11099390013776
H           0.32263126565072    0.54299274262846    0.33773130740743
H           0.13182435314940   -1.00175520626856    1.51471023670215
O           1.85068394864330    0.46686609848082   -2.35134703580845
H           1.21949694339781    1.16100000458346   -2.55156341519310
H           2.31304020390111    0.74228840951863   -1.51737275951719
H           1.09089408178236   -0.94759412212874   -1.99848740177321
O          -1.59518241158605   -0.00102252556757   -1.66956066945826
H          -0.82408076125764    0.87859578276213   -0.80373055717701
H          -0.99175537873113   -0.75122207428499   -1.83019536493779
H          -2.22354139472754   -0.32402679251699   -0.98043414307230
N           2.94468834681292    1.15479172520065    0.01959934296853
H           2.58626065053399    0.41829800884938    0.61946265498900
H           2.60999755422387    2.03774459283352    0.38489982124798
H           3.95425733647200    1.15025089075587    0.08597686622457
