    26
        -50.45364678  Gyration_radius:  2.37550999482 Dipole_moment: 2.958
 S           1.45037774713219    0.85097505415617   -0.63224835857767
O           1.32118389017912    0.26383316656392   -1.94538538354938
O           0.46692331445246    1.91281376182653   -0.39829216664775
O           1.45064673059905   -0.10332398942097    0.45427303417866
O           2.86899379037614    1.55468300652245   -0.58817648110445
H           2.90207533143117    2.01390801438090   -1.42078813384925
O          -1.90109345622606   -0.74650112231125    0.00359106047517
H          -2.11016064146080   -0.15452916071722   -0.76844548895783
O           0.70556511026471    0.16528889773017    3.05036753345986
H           1.40973732483410    0.25234755851134    2.38896845096552
O          -1.03013098978008    1.09310332773449    1.44999636789484
H          -0.43318478400631    1.53818850078103    0.74365967695851
H          -1.43976494461368    0.25586455429141    0.92232066335918
H          -0.38699676817427    0.74700968676381    2.19075974939598
O           0.21027631792026   -2.17770018402734    1.83974813351518
H           0.69070487248258   -1.63000922227832    1.19733735081526
H           0.48851937573363   -0.78753245882988    3.02967848180374
H          -0.66021624409141   -2.34092092666772    1.46888209102063
O           0.12802798256643   -1.97695114751812   -1.22509422762314
H           0.58269305029937   -1.18833670029274   -1.58855180139728
H           0.81692230211998   -2.55450732939889   -0.89086042673741
H          -1.17749855503084   -1.30450783114592   -0.35846874609859
N          -1.72004464919363    0.91960649999886   -2.04470832282400
H          -2.36325327931694    1.58702292506486   -2.45160365593253
H          -1.32145376388279    0.37183443482897   -2.79807191618391
H          -0.94884906451726    1.43834068347880   -1.62888748429711
