    26
        -50.45364707  Gyration_radius:  2.37550903631 Dipole_moment: 2.948
 S          -1.65793657624662   -0.40842667359025   -0.55439434384753
O          -1.81043931675618   -0.09611052081827    0.86995441003997
O          -1.75665424197598    0.76745366234298   -1.38716581444443
O          -0.47683269908242   -1.21017404972380   -0.78480745741031
O          -2.88742895250958   -1.33422389430746   -0.93030492011083
H          -3.61316794305210   -0.71953171324987   -0.95915148223435
O           1.53450212908031    1.17257391697058    0.65912485351049
H           0.86879997453170    1.87336377095289    0.89517927992950
O           0.89258550568853   -2.88294040488177    0.86500851621226
H           0.15865217538176   -2.78844883778185    0.23866990436969
O           2.29275854008025   -1.44116148659798   -0.90940958362621
H           1.35554311827136   -1.24823179902637   -1.07730968117197
H           2.69798793573720   -0.61918059507705   -0.62268477407936
H           1.68040290024563   -2.65812739836240    0.33084925074908
O           0.81299076480599    1.05960282995578   -1.91094912483140
H           1.02268859247585    0.42497551710642   -2.59877580150860
H          -0.15924948444640    1.02469659180571   -1.79124082783323
H           1.39716966847491    1.08025919777509   -0.30984642633309
O           0.39743692969246   -0.64118705288786    1.94505874155528
H          -0.55488119146237   -0.45823017119668    1.60848506904135
H           0.64708792918961   -1.59001351758613    1.59934417913980
H           0.97989563735420    0.08704116000472    1.41887438118209
N          -0.68738830704374    2.59127683825125    0.89565264630829
H          -1.27960970410076    1.76424004953435    0.94033134627426
H          -0.83739598304707    2.99957310373088   -0.01937039034304
H          -1.01751741121311    3.25093148670528    1.58887803944262
