    26
        -50.45364708  Gyration_radius:  2.37548046008 Dipole_moment: 2.951
 S           0.46573598451913   -1.15989129478132    1.28943389467023
O          -0.19986475838383   -2.26794289138391    0.64520547926166
O           1.72797229095119   -0.80983095615602    0.63068719059268
O          -0.36220585086267    0.01064345379076    1.47733459211424
O           0.85653978809383   -1.64957010935251    2.74443355653313
H           1.22439311748037   -2.51240687737083    2.58480258446537
O           0.29338934145552    2.64070908290001    1.66909790128727
H           0.17309694099701    1.79795000030710    2.13340185856903
O          -0.32784517598295    0.68619629111666   -1.89447155953315
H           0.22082102297182   -0.06896422391141   -2.23908256174204
O          -2.06471019317794   -0.88950574103549   -0.61396799272327
H          -1.42611904597455   -1.48892590276056   -0.17388155004856
H          -2.73893880527036   -0.68880502068945    0.03795631514885
H          -1.05615588705275    0.21389464835123   -1.43322898394965
O           1.41395136779267    1.50467319311975   -0.30339904122991
H           1.01021099823093    2.06381453687371    0.47521473702734
H           1.65678585092177    0.59245584792404    0.09964295391028
H           0.63631713540249    1.25884797719987   -0.99754417780652
O          -1.99378953422990    2.00298616180294    0.42138520521213
H          -2.00123390554462    1.94048635070033   -0.53676792896668
H          -1.61920074644901    1.17065495799413    0.75393217941276
H          -0.59162844137550    2.82603509040998    1.29717508673883
N           1.06544903654320   -1.55401799539008   -2.10639222396439
H           1.81118863468179   -1.84935891410802   -2.72392317374302
H           0.37776399974192   -2.29721482781191   -2.07073450645671
H           1.44807683473008   -1.47291282774964   -1.16630981496064
