    26
        -50.45364680  Gyration_radius:  2.37537403265 Dipole_moment: 2.956
 S          -0.59317336004323   -1.67179598526313    0.28144974921886
O           0.74159357972663   -2.21464873737044    0.37837440793573
O          -0.98140257998429   -0.93085380272650    1.48549958658753
O          -0.83744016528704   -0.88887485919701   -0.90959495276425
O          -1.58012037184013   -2.90791867432907    0.19452298378332
H          -1.25311574020637   -3.48682560578493    0.87509801208923
O          -2.57830751570785    1.14191462832325   -1.37084343467695
H          -2.42454051305726    0.18429198940632   -1.35878200847446
O           1.16558569787789    1.65792713066448    0.24950656784858
H           1.47016406951200    1.28458356026641    1.12011247213389
O          -1.26752807346227    1.46602273920497    0.77676299462113
H          -1.24292505271333    0.50739948494114    1.14260688340045
H          -0.24952679303883    1.63832080813855    0.49194604798528
H          -1.85880053589547    1.43045842738592   -0.07825572685068
O           1.96022822964014   -0.46092394773579   -1.17186261392973
H           1.59741603099488   -1.16891846693846   -0.59928567408801
H           1.77471451544517   -0.72387358188112   -2.07537498676853
H           1.46159042994006    0.96608609217216   -0.38280482126504
O          -0.17663632003967    1.25353782534639   -2.56275811394041
H           0.52476182207043    1.77028385729997   -2.15902117027198
H          -0.21122691996808    0.40746034324999   -2.08685952088534
H          -1.93722470522914    1.46871190622302   -2.03233204206523
N           1.63148788495942    0.05883375718197    2.30626099630680
H           1.80107961900021    0.22798990231931    3.28980114027947
H           2.33027928136314   -0.59716289008522    1.97792174181168
H           0.73306749575422   -0.41202590093540    2.21791148186862
