    26
        -50.45364708  Gyration_radius:  2.37537105711 Dipole_moment: 2.948
 S           0.60949532237747   -1.63015891810640    0.44059774616738
O           1.33016492833001   -1.78561994765405   -0.80127584665341
O           1.28718716185018   -0.71800621699477    1.36699026150697
O          -0.78263156118139   -1.27104275973423    0.28597422559654
O           0.61269043681168   -3.04839947550704    1.14664755014443
H           1.51553178647410   -3.33159534195788    1.04689262507229
O          -2.46600324561444    0.07808167289835    1.93895315207530
H          -2.08559396459129   -0.77926161451770    1.69309639500417
O           0.05561864105338    1.89676638209574   -0.75144369649109
H           1.04941778270590    1.85326492894176   -0.72771874600717
O          -0.20775361057452   -0.25939514627667   -2.30736757469502
H          -0.97680453184276   -0.78721549693975   -2.53057920456492
H          -0.16545774793160    1.15705300406057   -1.35988834390402
H           0.41026275789388   -0.85818273846084   -1.83797057169489
O          -0.24089385246364    1.26090141419480    1.64511616942519
H          -1.18094859529388    0.85880480020149    1.83662959573096
H           0.41171716580103    0.46868826289291    1.64826661828112
H          -0.20401361225334    1.59568582706036    0.62858652408127
O          -2.73238787826087    0.45049987673161   -0.70355117320182
H          -2.04059137550080   -0.22165463181426   -0.58815545303240
H          -2.93385836891011    0.36229083159016    1.12873804479608
H          -2.31363265746527    1.21229677491914   -1.11137096044829
N           2.55948003967633    1.06193956384049   -0.55500856253081
H           3.42381847440441    1.52061589326179   -0.29565144179251
H           2.72901796514696    0.53435877187856   -1.40318052219564
H           2.33616853928220    0.37928429342856    0.16667317941522
