    26
        -50.45364702  Gyration_radius:  2.37541920375 Dipole_moment: 2.950
 S           0.57512947797718    0.99243606296492    1.38174315878788
O           0.11811218179058   -0.26101778141320    1.98948899456699
O           1.95472061126567    0.92614616300858    0.95976145749871
O          -0.34472172916803    1.43731038023904    0.35849077858011
O           0.50406127196728    2.08297067873680    2.52868649503738
H           1.25352153188391    1.86518001067697    3.07293001202817
O          -2.99275621983339    0.94104912620560    0.01138655819602
H          -2.31788471000763    1.49825947571399    0.42914068369083
O           0.00130046915920   -1.51889333549365   -1.36416974643683
H           0.65577192883489   -2.00254629570391   -0.79162311043404
O          -1.45529832018660    1.14279348050523   -2.17745007762013
H          -0.88044110026258    1.33254889108794   -1.41775133646820
H          -1.11837478396509    0.34234866446181   -2.58706361707036
H          -2.82919565319340    1.06097197645418   -0.94501886112737
O          -1.66343008082188   -1.17162475041671    0.46450593872075
H          -1.00211971498940   -0.84488596857109    1.17818469349823
H          -2.30046281101696   -0.37107097367823    0.27616072063503
H          -1.03531169970256   -1.32743968177588   -0.38864778157153
O           1.52987195009896    0.65649867333480   -1.63074460837569
H           0.49057898899027   -0.69393212759081   -1.57919891381979
H           1.33090832221151    1.53318357682327   -1.96491528663119
H           1.78979700283168    0.77195394386163   -0.69273217455240
N           1.76790688057403   -2.14610300170548    0.50417010443284
H           2.02779432608421   -3.01899315567402    0.94602229093134
H           1.32118867401959   -1.55860681278963    1.20556990380103
H           2.61933320545355   -1.66853720934735    0.23307373387198
