    26
        -50.45364709  Gyration_radius:  2.37542694251 Dipole_moment: 2.951
 S           0.42184472358893   -1.44035666607656   -0.98553011227684
O           1.35806638705064   -1.93780575417173   -0.00474350074936
O          -0.97163097055386   -1.65937233171561   -0.58583257924176
O           0.63785319313961   -0.06558413607107   -1.37846830186879
O           0.63837254391039   -2.30247360022055   -2.29685620550833
H           0.68615671527510   -3.19088303870496   -1.95965325901202
O          -0.45841261605442    1.07371909029741    1.67381703790027
H          -0.66054602151957    0.21827461373723    2.14018425649167
O          -1.09054876757386    1.80683378158265   -2.32192392634701
H          -0.49558405128544    1.07098231741019   -2.53376245726191
O           2.04558166182440    0.38106566460822    1.05040124839731
H           1.87068231172035   -0.52273060394527    0.71374688713747
H           2.67862744970429    0.77515839569936    0.44721444178709
H           0.48808832820269    0.95631520651271    1.43571082158211
O          -1.97459086526992    0.62445131362537   -0.25857446169321
H          -1.67390630857515   -0.34102750721232   -0.43424038400469
H          -1.34876109022641    0.92374150277337    0.55757886145655
H          -1.70967862582037    1.16591530777186   -1.10624278382560
O           0.88738321117941    2.62349712573028   -0.70456466527692
H          -0.49872107964516    2.47039418841722   -1.91525666449972
H           0.70684313758361    2.73999953269083    0.23129781058281
H           1.02266332175342    1.67228108960471   -0.84782335632999
N          -0.67523450349780   -1.48689497806372    2.30656798675699
H          -1.31925117132959   -2.00263982506715    2.89302543195228
H           0.26511585903675   -1.78107438820391    2.54248524411123
H          -0.83041277282782   -1.77178631067889    1.34144262962755
