    26
        -50.45364676  Gyration_radius:  2.37557168916 Dipole_moment: 2.962
 S           0.67520739755868   -1.52822654440904    0.66026355788971
O           1.18567653469134   -1.45685192203633   -0.71225050793310
O           1.52829539518113   -0.83818113071769    1.59929974620513
O          -0.71639787565165   -1.13891862629322    0.71582784112056
O           0.71020845319018   -3.06123994145552    1.05796870504070
H           1.63688153480146   -3.22000980258182    1.20397820110788
O          -0.00167400283077    1.92383831271518   -0.68730045196593
H           0.98513549599499    1.85978313229250   -0.79876357879086
O          -2.64880232717913   -1.18255984546092   -1.18967630490492
H          -2.17948664274477   -1.66401347099720   -0.49048753407503
O           0.04703318703645    1.32260422845529    1.91620872004228
H          -0.65227699977318    1.08412321700850    2.52771593462720
H           0.65499797748554    0.55462284175208    1.88029131103452
H          -0.10756768681565    1.76897841569339    0.27742635624521
O          -0.49896638475896   -0.12575386610314   -2.02375790207888
H          -0.38102281113304    0.79440401542902   -1.48832835142631
H           0.20444695679496   -0.73403568885933   -1.58960499085022
H          -1.42238342727421   -0.54191079408786   -1.78645542587675
O          -2.67179867961527    0.84002950703882    0.57347303491717
H          -2.26889119862117    1.67800866598935    0.33389378136896
H          -3.05578856799179   -0.43044041047605   -0.71626708460308
H          -1.94970326453321    0.24774331988223    0.84062586309421
N           2.52077926593164    1.12833308628372   -0.59854575674755
H           2.81536142455050    1.28631611005888    0.35788229261855
H           3.31808561925577    1.29047907113583   -1.20083827069173
H           2.27265047335287    0.14287878085524   -0.66257967131710
