    26
        -50.45364703  Gyration_radius:  2.37540835032 Dipole_moment: 2.952
 S           1.25807244338575    1.27829451252548    0.08892354048437
O           0.65211841322956    1.26015894069708    1.42380360716093
O           2.34250279731775    0.33246706089742   -0.03361028089548
O           0.24773290340479    1.16966450338208   -0.93996274572736
O           1.89233317078905    2.72006857393662   -0.08082217292689
H           2.66684837815381    2.67621494933651    0.46999066970470
O          -0.89779758150494   -1.79497565547950    0.37268371291952
H          -0.27936691774803   -1.91922258302599    1.14225055005706
O          -2.39120301389359    1.81302253120743   -0.91462447735453
H          -1.48154295087477    2.11523418118095   -1.06182715096074
O          -1.63840496564659   -0.34746697510370   -2.31580929561822
H          -1.71212947269602   -1.21546293638464   -1.91184124702370
H          -2.50956348114340    1.10829795433300   -1.58172552116416
H          -0.82498359809683    0.05498172524975   -1.96932078591674
O           1.06174416944404   -1.51078839203458   -1.42136403067809
H           1.04761109928313   -1.20413013977763   -2.33000425328925
H           1.62645948597002   -0.88049342014096   -0.92686453651641
H          -0.27167051824246   -1.73045604528567   -0.38235646749953
O          -1.70832581653274    0.44806674630917    1.11208761171378
H          -0.78906532594762    0.85115961723752    1.32655391174444
H          -2.09197103855338    1.01126228266528    0.32634193095817
H          -1.46133743483644   -0.53048092473716    0.75341736304045
N           1.08274588010172   -1.53778880504387    2.10924678036404
H           1.08476063592287   -0.52165363780567    2.04449271108007
H           1.90865516337397   -1.85601431932982    1.61616062426892
H           1.18577757534517   -1.78995974487895    3.08417996214199
