    26
        -50.45364687  Gyration_radius:  2.37541874202 Dipole_moment: 2.955
 S          -1.60183261897772    0.13597853577310   -0.80134139885035
O          -1.10455957091540   -0.36660786781736   -2.06063105670483
O          -1.77207237268064   -0.92695609168926    0.19395242995078
O          -0.84476658664667    1.24038526003030   -0.25508213782133
O          -3.05327230448946    0.70538930539187   -1.08215315917277
H          -3.44685544330469    0.02423165105771   -1.61728976356815
O          -0.50216771242245    2.06006707862072    2.31029202282189
H          -1.04162105016917    2.10242069842310    1.50534677649356
O           1.79667279372645   -0.83009307387960    0.50227209845846
H           1.46011240605763   -1.70476658415631    0.16784167169215
O           1.39498223099019    0.44277958657657   -1.81273120001698
H           0.49001264978674    0.11948812676739   -2.00572808254841
H           1.39972447543318    1.37646208788234   -2.03195906519114
H           1.74623524398238   -0.27128329498125   -0.30477609370683
O           1.57435691311695    2.30105555221451    0.62840631338301
H           0.36473690918063    2.40917877110056    2.02363063126886
H           2.25030487058123    1.61916918663225    0.61758736908565
H           0.82955952111682    1.96614941618297    0.10244777950366
O          -0.13260769956111   -0.43475387508603    2.03756237289928
H          -0.87588036476015   -0.67605201449582    1.37213170246423
H           0.75716824288060   -0.55081701059087    1.45290484557551
H          -0.26425366203805    0.57280034449587    2.26036143825029
N           0.35553232874921   -2.72629811641512   -0.65170153880487
H           0.49689061141013   -2.59768573749266   -1.64667010392662
H          -0.52764309849215   -2.27220335730178   -0.42697147029718
H           0.25124330066731   -3.71803860410268   -0.47770237295405
