    26
        -50.45364694  Gyration_radius:  2.37540376244 Dipole_moment: 2.952
 S           1.47998037513166   -0.57331538767112    0.84010920355410
O           1.64528478659323    0.66432412848970    1.56567363555350
O           0.39878337942403   -1.39893413280387    1.38681680524053
O           1.33860021472330   -0.41614565017870   -0.59046993053273
O           2.81175678891559   -1.40472979917136    1.05242261624110
H           2.97039780149962   -1.31403262682266    1.98613986084477
O          -1.80895390638673    0.91987690859379   -0.22213868065256
H          -1.90858930417444    0.91329245911329    0.76787592026138
O           0.09664721061168   -1.97510375836721   -2.43459288973265
H           0.90757890655530   -1.79312077416252   -1.93470699347353
O           0.00821480131153    0.68494659896962   -2.77489447876624
H          -0.76322452920903    1.17034898735713   -2.47274961643593
H           0.56189698299368    0.52350946406288   -1.99324767481814
H          -0.04446658513899   -1.15593739082654   -2.94895205201948
O          -1.36083379009379   -1.52967959740320   -0.40638305512975
H          -0.84832398222978   -1.77615096629678   -1.27732595045932
H          -0.67302736139527   -1.59054069355568    0.35296891280945
H          -1.60253031393135   -0.48646159919442   -0.42564619436523
O           0.49749483644633    2.26873377959056   -0.18739624306255
H           1.14750904244977    2.42739097459732   -0.87458214733579
H          -0.99238149511393    1.45412275419997   -0.34037043219464
H           0.95678363532401    1.76077585724587    0.51382504178539
N          -1.35802927394752    0.70242838521645    2.37671666934081
H          -0.78399243687467    1.50303776181519    2.61329064827658
H          -0.71999131265837   -0.08227367834650    2.25911703193140
H          -1.95658447082417    0.50363801558232    3.16850000312821
