    26
        -50.45364690  Gyration_radius:  2.37561880204 Dipole_moment: 2.962
 S           1.14399210902322   -0.68886654964852    1.20160968862963
O          -0.08879979385190   -0.44589349847661    1.95697588548380
O           1.15203279051515   -1.98686367267599    0.56844770720880
O           1.43232721515702    0.41445930561673    0.31239538560248
O           2.31396415994821   -0.69852046039582    2.26968310541123
H           2.20027178435782   -1.53974573467684    2.69935115474909
O           0.70068386824087    3.02671642553332    0.42782631861854
H           1.33952221128418    2.34622674703092    0.69147918085305
O          -1.62129671496547    0.07154037422041   -1.24036911861394
H          -2.00263343779688   -0.70487297656844   -0.74837755958707
O          -1.25852931401178    1.45939896065140    0.80316882417253
H          -1.43348844770272    0.95834212937237   -0.12743131737147
H          -0.82370715596764    0.72842083542720    1.37756917106694
H          -0.52851429204143    2.18738474757269    0.66560731122162
O           0.64052660870799   -1.19213297802310   -1.89521705282071
H          -0.78014897309747   -0.30069531149490   -1.58658520779411
H           1.46964201173660   -0.86858681698807   -2.25257109486894
H           0.85142352295401   -1.58267291559045   -1.02130185397085
O           0.84777630340624    1.87019039267134   -1.98877183803863
H           0.75541350050817    3.02654412375764   -0.54815873790437
H           1.14275959829655    1.20506553276333   -1.34522009707764
H           0.04841071969732    1.52722067029056   -2.39538207126056
N          -1.95353954749851   -2.01056933006066    0.35885436726196
H          -2.76518776531561   -2.41026975971950    0.81289476772300
H          -1.34614511066153   -1.62646097086316    1.08014679730362
H          -1.43675587088776   -2.76535927970227   -0.07662369599431
