    26
        -50.45364681  Gyration_radius:  2.3756016518 Dipole_moment: 2.959
 S           0.47452780117941   -1.54680625256117    0.78117269086764
O           0.22273651247388   -1.04470785603544    2.11171252358589
O          -0.76361417597654   -1.85721061259036    0.05999389578441
O           1.34534247148871   -0.71487210133454   -0.01939860367125
O           1.23451435694718   -2.92612167286013    0.95379666209581
H           0.73476415163317   -3.35716852248238    1.63917167776719
O           1.52376073448398   -0.40561137031945   -2.71046627859379
H           1.80095553832238   -0.90375973950066   -1.92571902049295
O          -1.09894033150248    1.68814247516207   -0.33513678057080
H          -1.83672520293475    1.28583755108027    0.19790128002578
O           0.69904651453143    1.50623421830092    1.63333232425094
H           0.52054174749413    0.58421894020582    1.91398817313769
H           1.65270957570352    1.60811317691732    1.63416305880385
H          -0.36963999666821    1.72455629449325    0.32279077319692
O          -0.86890789322831   -0.25949827845319   -1.88054087679950
H           0.07015583773127   -0.30576546495900   -2.32572379152847
H          -0.87725892246583   -0.99286352916683   -1.16255627171997
H          -0.93878835878495    0.63985435291079   -1.30289089022977
O           1.93011590318298    1.75370534230491   -1.17037775926183
H           1.83982157512877    0.50147950732021   -2.52939501029244
H           1.20466067084298    2.36352278337759   -1.01605541911015
H           1.79941567746836    1.00393407684960   -0.56685792337583
N          -2.53051558041996    0.12728851392443    1.25159570897445
H          -2.05218687188013   -0.71847297053263    0.94723892602354
H          -3.52037711644339   -0.07629047473084    1.31037927956644
H          -2.19611463826205    0.32226160263446    2.18788165172826
