    26
        -50.45364708  Gyration_radius:  2.37549312574 Dipole_moment: 2.949
 S           1.57305936520646    0.34105710277285   -0.79495029765191
O           1.03863308687681    0.14005990834430   -2.12153657223565
O           1.16344789368198    1.62536929456686   -0.21858201263776
O           1.31828175296543   -0.74433873741028    0.12590153101453
O           3.14825900048047    0.41596259524873   -0.94751567747306
H           3.26043661763674    0.99205202744260   -1.69641594773508
O           1.10374816738712   -0.76872606367122    2.83663401727878
H           1.69858546610978   -0.82080923313548    2.07285915166286
O          -2.01879477712687    0.05864964988091    0.29318729655393
H          -2.06433968432817    0.83425480293801   -0.32846608894127
O          -0.87168835568028   -1.56732492003562   -1.48992188836377
H          -0.18238462097999   -0.95690592187910   -1.82610833646030
H          -0.44769028764442   -2.42127727707702   -1.38585189676517
H          -1.64901204933445   -0.64423109629256   -0.28598323893744
O          -0.47063212484976   -2.42512718160088    1.43441384741006
H          -1.37047240775742   -2.15405317306952    1.23724185149355
H           0.10393828567487   -1.98051998175674    0.78943287075628
H           0.50908564159839   -1.53589273566372    2.71704875532461
O          -0.27703030300963    1.07217460210910    1.76810674842285
H          -1.06377253856720    0.58902528031497    1.22596962119413
H           0.25459531036636    0.35705522282227    2.30479885629180
H           0.35144325410174    1.39174047591626    1.02206978920562
N          -1.43696342223366    1.91873742382021   -1.49741257604849
H          -1.79352415336429    2.85046692663174   -1.66883000513467
H          -1.40470296276943    1.42939645785314   -2.38394653283578
H          -0.47250616522552    2.00320454071496   -1.18214326560796
