    26
        -50.45364706  Gyration_radius:  2.3755349837 Dipole_moment: 2.952
 S           1.57147632491026   -0.86453204321812   -0.07497376823898
O           1.50147748872814   -1.27867539907891    1.30680669047452
O           0.67830496507977   -1.64578569145290   -0.93619315381361
O           1.38511462188985    0.55362445878066   -0.28704840486729
O           3.04210232381331   -1.18450377586677   -0.56997715257440
H           3.19220828305537   -2.06160996105289   -0.23311627767054
O           0.44457521613289    1.92785541075904   -2.43818607826126
H           1.21881168400700    1.53116565560510   -2.01050294967193
O          -1.95470816294858    0.32390745374656    0.48966237719073
H          -2.04038902021429   -0.64568582654997    0.69621322025985
O           0.04550329479498    0.72602795532110    2.21503681520792
H           0.64481739136340    1.46630565408371    2.32765803894173
H          -1.25907949936352    0.60596129056742    1.12427769747698
H           0.60234699539702   -0.04535749376473    1.97912741150634
O          -1.04130028893287   -0.02978320620204   -1.80743985636299
H          -1.48116586658559    0.21266054622680   -0.86162501820576
H          -0.50197697795926    0.79049620464968   -2.15109999942160
H          -0.34596063422851   -0.74309941243038   -1.55964466986356
O          -0.15260103343058    2.85235588525188    0.00632380677353
H           0.43003930288377    2.08605777426098    0.13759299847420
H           0.14493352992372    2.59925703264436   -1.79317438181913
H          -1.00140358710841    2.62468719287333    0.39337607002098
N          -1.44251578086433   -2.22714199929230    0.97340681854665
H          -1.98295955346328   -3.07534495145322    0.85869332876641
H          -1.03160338564143   -2.24233244875076    1.89938392632953
H          -0.66604760691113   -2.25651031369195    0.31542252407529
