    26
        -50.45364708  Gyration_radius:  2.37554563816 Dipole_moment: 2.948
 S           1.48656592110389    0.63236063176732    0.78316441184220
O           1.15550815094921    0.05308887472753    2.06404549946835
O           1.96905396833053   -0.36914059914496   -0.17277625818030
O           0.43853785068689    1.44093700073029    0.20113983748233
O           2.70285507001658    1.61666134576041    1.03199717676269
H           3.27966263346462    1.10199250838148    1.58666466056183
O          -0.12711448092803    2.02794896432057   -2.39283567074810
H           0.38012706366928    2.26718900684358   -1.60199766282283
O          -1.46841077222559   -1.34165787138474   -0.45664237367246
H          -0.89001013647494   -2.06524017930542   -0.09336963808266
O          -2.18036537363752    1.70900416011165   -0.69810915959324
H          -1.05730950484511    2.11235580081852   -2.10306440961126
H          -2.62307921847901    0.85777049236234   -0.65948075346822
H          -1.37067042009444    1.62829370003248   -0.16739844109598
O           0.26334375695532   -0.45108688033708   -2.01995090820487
H           0.09048183223915    0.54081114864536   -2.28127733664644
H           1.04258694299598   -0.43654459913028   -1.35202620446797
H          -0.55407005610125   -0.80330156684742   -1.42471745256238
O          -1.47071144044115    0.07718533398520    1.80745779868615
H          -1.75209307429320    0.97563297352013    1.99039542316111
H          -1.58841735884635   -0.76387417540286    0.32951068411135
H          -0.51122051333589    0.04361663269271    2.00500738300853
N           0.46440287299440   -2.68402430737664    0.75486667408054
H           0.85748306908879   -3.60672708720094    0.61773009600156
H           0.28781209867813   -2.56471070417984    1.74536859993166
H           1.17505113850956   -1.99854058431150    0.50629800411038
