    26
        -50.45364705  Gyration_radius:  2.37539867262 Dipole_moment: 2.950
 S           1.35285661920882   -1.07242019634447    0.49355983386707
O           2.29564667954018    0.01866963361516    0.57316810894197
O           0.42869603548170   -1.09348520556361    1.63150186802797
O           0.63427321195206   -1.15473642302436   -0.75869449950357
O           2.19698823710167   -2.40929444442991    0.59444263881549
H           2.79238654074232   -2.22906191480681    1.31431595458118
O          -1.19517463055767    1.65457448972550    0.00254857167607
H          -0.81737618604410    1.89910809837215    0.88991960535893
O          -1.81272341001842   -2.18217929975270   -1.34065032154530
H          -0.86404822610995   -2.35304775429096   -1.23489984704827
O           1.17830132498049    1.59639892470883   -1.22284579441286
H           1.67666937028760    1.07652300560769   -0.55791321060813
H           1.43778856148699    1.25535752179567   -2.08087896929014
H          -0.39352612546064    1.65499852626951   -0.56640369946487
O          -1.85985534637504   -0.65387039148072    0.68408478569424
H          -1.95051434899497   -1.29768331213613   -0.12772946796868
H          -0.98075885103147   -0.90736215160568    1.14936477605853
H          -1.66271332510051    0.33586386165704    0.32540172919345
O          -1.02178593069423    0.01042893905529   -2.66859121093842
H          -1.84856943104891   -1.52857922406718   -2.06680219849511
H          -1.31251237805012    0.87241598168346   -2.36117490678879
H          -0.27809035816039   -0.25328942619006   -2.10201009024437
N           0.29005025123890    1.76169298377271    2.19071017236494
H           0.10495311424364    2.06384041342381    3.13891929090980
H           1.16451661170050    2.17971810545214    1.89567562504792
H           0.44452198975308    0.75541926854346    2.20498123575852
