    26
        -50.45364679  Gyration_radius:  2.37559002338 Dipole_moment: 2.960
 S          -1.76098420558437    0.21007906916248    0.28707182714354
O          -1.63596294209308   -0.00798725523139    1.70924890600165
O          -1.28756747196978    1.53777077573014   -0.11603720932319
O          -1.16706103030102   -0.82254302063214   -0.53275260401495
O          -3.31066576227789    0.18276761929674   -0.04092304967630
H          -3.68158990705708    0.72080427065128    0.65057047037912
O          -0.14839115312975   -0.72530882945849   -3.04681903071330
H          -0.93118111755124   -0.84433027908996   -2.48650563252082
O           2.00554076927842    0.19805675055028    0.33182365115435
H           1.80507569841945    0.94992084354873    0.95214852052814
O           0.49316100580148   -1.56588986895646    1.65209529440127
H           0.18173083311042   -2.44125694438665    1.41427045526732
H           1.52993057627494   -0.54907709685773    0.75784604469923
H          -0.30690270241374   -1.01329197113203    1.77557841246049
O           0.72024084508993    1.15538991689376   -1.58291892877978
H          -0.12439483151776    1.40563818953515   -1.05629873954468
H           1.34046472309707    0.70200133334397   -0.83659493016277
H           0.42584162709521    0.42965324640480   -2.26759722238387
O           1.05387948085433   -2.33504130566660   -1.26824975142476
H           0.43946817604130   -1.45841049735179   -2.77768935739334
H           1.83045901898372   -2.02045273465693   -0.79928295076513
H           0.28149600964490   -1.95416388035426   -0.81893846567295
N           0.77926842626906    1.94688587280582    1.89442426432706
H           0.51806625957035    1.42538836824613    2.72283963013151
H          -0.04955594515450    1.98027262559825    1.30395494409343
H           0.99963361995888    2.89312479220616    2.17873544191915
