    26
        -50.45364695  Gyration_radius:  2.37545847914 Dipole_moment: 2.959
 S          -0.45007153965727   -1.49601389036522   -0.88663262662628
O           0.33026142353583   -1.96462718335805    0.26266404010484
O          -1.85328469047398   -1.35441952182406   -0.57560207654375
O           0.15438581777991   -0.32365715503377   -1.47944671207310
O          -0.34123999299633   -2.63676244994976   -1.98050654724310
H          -0.91634530098582   -3.31294484104480   -1.63800836048977
O           2.72331882794448    0.55565729381464   -1.45295314014435
H           2.05713847012512   -0.00209722182841   -1.88395101157146
O          -0.00998642773165    1.37882940129398    1.50604955101101
H          -0.44265118271937    0.70120744695262    2.09242065714981
O           1.90096947468953   -0.09199950570232    0.85799472070876
H           1.34922774671366   -0.93150408914333    0.64716422607002
H           2.33808992053751    0.19641881977748   -0.04068785239269
H           1.15136373374021    0.62380995494139    1.12821263879362
O          -1.91475120040260    1.27533357607915   -0.36517046726874
H          -0.66772618976138    1.46933092538414    0.78124603958834
H          -1.94393843329489    1.61773387204070   -1.26056369382457
H          -1.99775466835831    0.30157284785380   -0.44013098007842
O           0.76786623541496    2.39053286518800   -1.36513647999344
H           0.49922138429960    2.74761583283966   -0.51520252374081
H           2.35521814703746    1.45750558803272   -1.53540355057800
H           0.33281697320271    1.52688269197885   -1.45675343600527
N          -1.23061059689926   -0.78428059567391    2.41963029776517
H          -0.76257168680345   -1.39913117709341    1.75661337039573
H          -2.18933609357614   -0.70078621872310    2.10283207841458
H          -1.23961015142055   -1.24420726634641    3.32132183857059
