    26
        -50.45116926  Gyration_radius:  2.66192865042 Dipole_moment: 3.381
 S           0.87787077209990   -0.06928108282180    0.66297097038229
O           0.02818452632355    0.91499414780467   -0.15513189045234
O           0.16898837092347   -0.08000685716012    2.01193088545049
O           0.79953632763432   -1.37914715555089    0.05726251532709
O           2.20647505257627    0.45231527840005    0.80003875190804
O           1.55984239001199   -1.42007796492266   -2.50533519902779
H           1.24334877746266   -1.55106865918235   -1.58975311339273
H           2.50505145797179   -1.58460426990446   -2.48797162554066
O          -3.46400479004568   -1.18617417924201    0.83201537607057
H          -3.20754652123779   -0.23023113981718    0.91742629364937
H          -4.20944956719959   -1.32616800321974    1.41813724132346
O           3.51199147603882    1.45147437720380   -1.28272019266649
H           3.93011283067798    2.26943719836649   -1.00872703550779
H           3.15907382737601    1.03942480785125   -0.46648744282270
O          -1.17644200321876   -2.15437826863794    1.70997177825443
H          -0.43804745763282   -0.92936403612581    2.00297931179279
H          -2.06380850882373   -1.88461996298412    1.35188896454657
H          -0.62502693517788   -2.37853125560763    0.94665463917322
O           1.10256796377158    1.17977967400723   -2.36945762070345
H           2.02309817770532    1.43135388343188   -2.12378339765761
H           1.17271364968075    0.23526772023246   -2.65102586599788
H           0.44616252720879    1.07047183687329   -1.13502888822397
N          -2.54760269886175    1.30689895179738    1.23259277393368
H          -2.24268529994443    1.40853165661102    2.19350513352669
H          -3.05435137041943    2.14485778859955    0.97490855188938
H          -1.70605298490843    1.26884553400267    0.66313907478485
