    26
        -50.45364697  Gyration_radius:  2.3754055841 Dipole_moment: 2.951
 S           0.86700079030386   -0.05236056114192    1.57171355011413
O           0.35286682865134    1.31740188010285    1.47661400268214
O          -0.09087400689635   -0.95766663705073    2.16206681116652
O           1.40624693756262   -0.49232376296830    0.30411860806622
O           2.09976842566309    0.01413431929114    2.56453236211848
H           1.68150361081329    0.11033339502889    3.41370984772267
O           2.40720339876275    0.92183109677052   -1.78744280367475
H           2.58286196430091    0.49729817141372   -0.93337870226441
O          -1.58905807583126    0.09929264867416   -1.27805127512090
H          -2.14956659475351    0.41956137611459   -0.52090341214676
O           1.01689272237037   -1.30794995802732   -2.32926692304328
H           2.11039653501170    0.18262832240902   -2.35414080754466
H           1.07556110326795   -1.24633751491250   -1.36160904709927
H           0.08665325510659   -1.23506843054635   -2.55589653783648
O          -0.86521931351821   -2.16285291317874   -0.05434307618974
H          -1.29881561615392   -0.78311046078528   -0.95637464038177
H          -0.18495815882801   -2.80545904903515   -0.26454763366381
H          -0.63096848414631   -1.79050614423330    0.82155870995310
O           0.18189594972976    1.83403756035427   -0.97950872871310
H           1.09459284115998    1.54494521028722   -1.38590563928898
H          -0.55635587615402    1.09474548824545   -1.21557633395317
H           0.28263299951507    1.73942437178036    0.03748799585406
N          -2.48135062225798    0.74382368729820    1.12894073376230
H          -1.56195363981271    1.03493945575171    1.45547302591282
H          -2.67765687308880   -0.14048009935135    1.58280235580399
H          -3.15930011074133    1.41971856791707    1.45792756775804
