    26
        -50.45364698  Gyration_radius:  2.37540808525 Dipole_moment: 2.955
 S           0.50565143142886    0.50137584067425   -1.64866477233534
O           0.89659605589448    1.61881573680549   -0.78395834107970
O           1.53037764070876   -0.51300300810830   -1.73079555536620
O          -0.80417648714412    0.00372923728443   -1.29108625715773
O           0.35296218140836    1.10987604866582   -3.10343731747450
H           1.25608739699447    1.23567101769090   -3.37523428795070
O          -2.88865309556141    1.22184403236710   -0.04681451997825
H          -2.43576989932712    1.03730381818733   -0.88429821927835
O           0.21197763764597   -0.61141028965804    1.93568247747463
H           1.16531309583036   -0.32879699400877    1.89675918847016
O          -2.46036747136090   -1.37519329961464    0.47210659641601
H          -1.80969863951633   -1.11665704131940   -0.20118248737266
H          -1.96464451487992   -1.61938868547991    1.25736719503921
H          -3.13635148285096    0.33445397402761    0.28017720652219
O          -0.69101441972233    1.58601681413220    1.16736650287964
H          -0.04600726564081    1.72033456208006    0.38041810925142
H          -1.63957888418462    1.50220046943643    0.74898949219457
H          -0.39498003982276    0.63337149557222    1.55774798183757
O           0.41063393043434   -2.29014652460201   -0.13340420291867
H           0.89595396174317   -1.70609768079810   -0.75312638200313
H           0.17357487332939   -1.29364413908013    1.22900418771284
H          -0.26112793845035   -2.73539879761426   -0.65335806329891
N           2.59253975995230    0.19526966672084    1.10773715800655
H           2.20168845713949    0.79537983486856    0.38402901694281
H           2.99197959887476   -0.60388401130577    0.63001941715486
H           3.34703410703394    0.69797792295198    1.55795588634235
