    26
        -50.45364704  Gyration_radius:  2.37544893371 Dipole_moment: 2.953
 S           0.60971929204521   -1.54332752717751    0.68654709584462
O           0.21730886725074   -1.19348876192362    2.03168339375495
O          -0.53449858991095   -1.93221343469008   -0.14353695389368
O           1.41911961883098   -0.54789931102397    0.01927466000022
O           1.52174734359003   -2.83361637413484    0.80121024734458
H           1.03563442409528   -3.38209090568420    1.40788358602276
O           1.72448903403057    0.01584088812928   -2.62054056876353
H           2.01464817085826   -0.51657289951274   -1.86370117835294
O          -1.27291756235154    1.57189957301143   -0.27557951796310
H          -1.98802800922941    1.04208514162320    0.16934245229669
O           0.40867463348093    1.42774878502203    1.79568861626342
H           0.32681172182445    0.47012533588751    1.98802978955558
H           1.34159837096210    1.63815410634411    1.86820223559053
H          -0.59546584629357    1.63453190169885    0.43397110938757
O           1.77030972004580    2.06140945912120   -0.88543474730865
H           1.91540314022310    0.93332714880172   -2.34212408054612
H           0.96720960985172    2.56622245615656   -0.73640020632625
H           1.69448999910509    1.25067796499137   -0.35567658667056
O          -0.71396106799781   -0.19250503676629   -1.95169590727703
H          -0.92774271172335    0.63818812849193   -1.31032447295219
H           0.24885381565082   -0.08971340928288   -2.33146275035621
H          -0.67694765115697   -0.98243571075298   -1.29733328608466
N          -2.59848313905354   -0.27755212874338    1.07618173182857
H          -2.00395113812290   -1.03241130144456    0.73943114794252
H          -3.55799404286210   -0.59902152071343    1.05054388752177
H          -2.34602803270059   -0.12736256757614    2.04582030327138
