    26
        -50.45364680  Gyration_radius:  2.37566101124 Dipole_moment: 2.962
 S          -1.31275055536943   -1.15436753868430   -0.41415464923846
O          -1.04644185743605   -1.99105620917235    0.73253437446947
O          -2.00695438132342    0.08449755756085   -0.04966370266935
O          -0.15592523989305   -0.87723642117725   -1.23632606143400
O          -2.31618198016137   -1.95901020645130   -1.33900258538931
H          -2.95715630390395   -2.28878139516644   -0.71802556691923
O           0.40804069207317    1.22648325632939   -2.85701834942295
H          -0.01035984396879    0.35631378983831   -2.76465226342591
O           1.17439939648131    1.18077616806125    1.18265893747414
H           0.48438829163076    1.11124161899811    1.89647306219305
O          -0.41770710704810    1.96311989709640   -0.57422484253211
H          -1.15465547866621    1.27181619742575   -0.39481028196988
H           0.34194628095467    1.68976861380715    0.12999218599822
H          -0.07395624708580    1.77158881207619   -1.53705724578713
O           2.43445712267035    0.11415316120519   -1.49454918872091
H           1.64520676241332   -0.41735814558011   -1.29946009665349
H           1.35021271877657    1.04901962283067   -2.66653852848774
H           2.71638885052299    0.50670107355222   -0.66489797502461
O           1.52650876839357   -1.46070093599980    0.97994903010045
H           1.43023675399307    0.24049468114694    1.05504004224439
H           0.58567043509229   -1.73493678982337    0.95912118712890
H           1.97729625449519   -1.99511139893516    0.32343893659144
N          -0.92816835376035    0.47606206933120    2.62670662327952
H          -1.49187067130401    0.96626194390266    3.30981097034673
H          -0.69645497416549   -0.43337685967824    3.00826831758409
H          -1.50616934376127    0.30363740733408    1.80638768020836
