    26
        -50.46489362  Gyration_radius:  2.5538353526 Dipole_moment: 4.634
 S           0.59872948936140   -0.43513615713440    0.36644202503253
O           0.73169664008186   -1.34478103007329    1.58797326268143
O           1.88619366753756   -0.36417028381406   -0.29466628084348
O          -0.43410103085909   -0.96953096211269   -0.52151276697337
O           0.20979043158780    0.91346990524802    0.83840420262192
O          -2.84608097331571   -1.18575777189121    0.52184579221886
H          -3.21506363904651   -1.99741810972645    0.16952689704815
H          -1.98650756061102   -1.05586634447321    0.06396430843660
O           2.22247562799318   -0.83626484335178   -2.86776676345027
H           2.39397270476625   -1.76782970854351   -3.01165381869715
H           2.18599493756782   -0.71831892780410   -1.89120795920145
O          -0.87204445121168    1.32056434629300    3.24818718591460
H          -0.51524380565381    1.27809811192117    2.33768162614306
H          -0.11543530846408    1.42573267385121    3.82751936044780
O          -0.18149511186941    0.31650123225988   -2.80231530842668
H           0.45879555381721    1.43223635474469   -2.04907300544399
H           0.61886728552682   -0.14329140569921   -3.13422014679459
H          -0.45719628292117   -0.22550797374052   -2.02706013710330
O          -1.47044396368975   -1.26205729604379    2.80949810772166
H          -2.12900553527741   -1.25464883106529    2.07947022366591
H          -0.16558586665651   -1.36616090457513    2.10716020239303
H          -1.43753945547446   -0.34009102346042    3.14206218335675
N           1.00699875799551    2.04743678307007   -1.31863958173539
H           1.98902824755889    1.77945706022590   -1.36378993798138
H           0.64471118511171    1.70857160259286   -0.36007174866838
H           0.87848846616422    3.04476346330732   -1.45775791237558
