    26
        -50.45364712  Gyration_radius:  2.37546768878 Dipole_moment: 2.949
 S          -0.60531102401110    1.54171275702940    0.69262860515470
O          -1.77464501056652    0.65734777853079    0.67969919143905
O           0.17584416568474    1.40039398304610    1.89912604990196
O           0.15303230410020    1.41475283380374   -0.53199742716487
O          -1.17769455789003    3.01898112069689    0.69405157454977
H          -1.49142208921568    3.12275409866197    1.58629900094373
O           0.56683990570981   -1.96019744427858   -0.03391308784244
H           0.09364843796490   -2.08914712919293    0.83187648440193
O          -0.59944703933781    0.61485693247211   -3.01947489677423
H          -0.52295334935924    1.35376849492033   -2.39650468251705
O          -1.40211349204195   -0.96662951158874   -1.20502811667711
H          -1.12679804336609   -0.38424271995922   -2.02169838851320
H          -0.52896821865006   -1.43591610792973   -0.79978079261518
H          -1.67143005647456   -0.30805905562455   -0.46525246190564
O           2.15607678294582   -0.01983152864938    0.88678479697265
H           1.23809723175181   -1.28148770325300    0.20079292810635
H           2.72693638807787    0.59989264283921    0.42861566218531
H           1.48053626582033    0.51863547797415    1.34992443947180
O           1.85526257975074   -0.05277279391119   -2.17178351072871
H           1.99501399304447   -0.92428259011920   -1.79363095215824
H           0.32373480829625    0.31207421837343   -3.13087007680993
H           1.46289774035247    0.49654175632611   -1.47315116735615
N          -0.71737394252421   -1.55940405661272    2.24527528560712
H          -1.35990258076586   -2.12402368732751    2.78660205757503
H          -1.23030951929965   -0.75811062675811    1.88262954634442
H          -0.01955168010662   -1.18760713955201    2.87877993838875
