    26
        -50.44721205  Gyration_radius:  2.51047767019 Dipole_moment: 3.932
 S           0.96130566423304   -1.81351613670161   -0.55224443963706
O           0.26280021395527   -0.91075126474936   -1.45462023862106
O           2.15141617251893   -1.15253417901522    0.01393050517242
O           0.11484215180300   -2.40184017219559    0.44553856942466
O           1.54555631843792   -2.97940309494662   -1.44287744148220
H           2.18926177470653   -2.50553665923149   -1.95857834948077
O           2.19209130088595    2.59785861456865   -0.00155873436161
H           2.05428466685746    3.50590573253262    0.27247012311006
O          -0.71156186544082    1.05800393485947    1.75872500186316
H          -1.01867459397641    1.36924574482307    2.61158185312011
O           1.81033362835519    0.66578167790487    1.61574582733228
H           2.09784654431605    1.46547858103257    1.04126029427604
H           0.79549185223407    0.76492639350313    1.72565843374803
H           1.97845628593155   -0.18704851475256    0.95778725732201
O          -2.01927718840257   -1.03732681157055    1.24274458918905
H          -1.30108151191076   -1.67762906892408    1.06332809411908
H          -1.25700550845623    0.20235240698701    1.56638638447460
H          -2.42283513426157   -0.87761782643519    0.35421439500760
O          -0.06826816168458    1.68163544841902   -0.92266559091689
H           0.07485342479616    0.76188788199118   -1.22857220228766
H          -0.55929826542428    1.59876817732342   -0.09391230560104
H           1.38066702785238    2.32599341974311   -0.51517435037610
N          -2.61420763302495   -0.62399030490777   -1.35342984538165
H          -2.84266108139602    0.28593892445309   -1.73429935411539
H          -3.16270524049710   -1.31363909603430   -1.85105783977205
H          -1.63163082231580   -0.80294382932148   -1.56038061635675
