    26
        -50.45364704  Gyration_radius:  2.37536636961 Dipole_moment: 2.951
 S           0.58676948774395   -0.18731894490656   -1.68659598021674
O           1.50367202935298    0.92299985326022   -1.57648893243223
O           1.07324598977656   -1.38190325450529   -0.98970260316889
O          -0.77388631198516    0.11755074513517   -1.30346381816613
O           0.52563079934862   -0.57422235249810   -3.22163355158397
H           1.44219111918421   -0.56970292712293   -3.47687574936604
O          -2.74715388737164   -1.47803425795123   -0.33357561323178
H          -2.30022634149688   -1.12305941841973   -1.11760515882368
O           0.11013444759417    0.32109095903687    2.01281208161589
H           1.08796916299853    0.14317071501048    1.96525188611086
O          -0.54731906856961   -1.80833679874076    0.88652562923465
H          -0.35840455886841   -0.90377225744356    1.42791849254018
H          -1.49113865434706   -1.75414138651909    0.45287790194697
H           0.12343013121397   -1.75475351368743    0.11144515471958
O           0.17642110240304    2.31231782246417    0.23239995925522
H          -0.52791818190858    2.76356551824453   -0.23680192671190
H           0.01589564716857    1.09775267184177    1.41765590678057
H           0.73121963736165    1.88215184203769   -0.45162103058987
O          -2.59714242946970    1.03672781670834    0.58861032028955
H          -3.09026344298656   -0.68035814989184    0.11558181522638
H          -2.14470757191413    1.20352802416358    1.41897645457630
H          -1.91019722398863    0.95030080390215   -0.09276044404977
N           2.57690928349830   -0.10766051901889    1.15495012694561
H           3.37188390642495   -0.59521412017744    1.54860080995224
H           2.89882733551866    0.79198620865872    0.81806045863942
H           2.26415760344222   -0.62466508949996    0.33545779044253
