    26
        -50.45116907  Gyration_radius:  2.66153502751 Dipole_moment: 3.382
 S           0.32108904875401    0.61950714595761    0.85447854031557
O          -0.65874174101614    0.56580320675370   -0.32761178658479
O           1.55116140218792    1.27435367839586    0.23784886665970
O          -0.22550035160591    1.45282662146350    1.88545373796096
O           0.63838397531166   -0.72847276182287    1.26792422968124
O           2.23392591494197   -1.28720216695767   -2.72705478056815
H           2.96122114640710   -1.22361425708838   -3.34824655736039
H           1.67747897540652   -0.47395031432363   -2.85300141623890
O          -1.50772635414673   -2.18232257078907    1.92150960604977
H          -0.64417202734134   -1.77986401677271    1.70268335505045
H          -1.64807672034919   -2.02226946629529    2.85721489495992
O          -2.75107444688237    1.19828621328361    2.65865838745325
H          -1.79100153244014    1.32750972755598    2.50989590541764
H          -3.12781145600755    2.07570292952432    2.74311784097460
O          -2.79767683292518   -0.36003717219111    0.50681099628189
H          -1.61218215177648    0.16755675941675   -0.02634454234881
H          -2.48205036092756   -1.19769313530228    0.92519002336374
H          -2.99673445442145    0.23364049177779    1.26761852599540
O           2.87722559115804   -0.78339991942435   -0.22234811085006
H           2.27641499977299   -1.27691101607818    0.35421023899126
H           2.67559781704118   -1.06598905075481   -1.15394726516399
H           2.19698673371107    0.48920459315887    0.00041660200891
N           0.85523620143761    1.01644856417567   -2.82152021040864
H           0.30246372232447    1.31436118286317   -3.61589368380595
H           1.45726248920944    1.78582805024352   -2.55270560205198
H           0.21830043217809    0.86069668325229   -2.04435779579244
