    26
        -50.45364687  Gyration_radius:  2.37547677388 Dipole_moment: 2.958
 S           1.76149165094472    0.12646166235687   -0.32903124070761
O           1.29897918584699   -0.96711874892687   -1.18898347258886
O           1.63171547354390    1.41653365923632   -0.96524020584862
O           1.16149296407534    0.04199422025311    0.98404189215926
O           3.31156424680657   -0.11742733105483   -0.11102215567931
H           3.68527998967103    0.14322081657423   -0.94630622223822
O          -2.00440834226000    0.14601419557340   -0.36109453568163
H          -1.80019221544008    0.22527467245822   -1.33183695483234
O           0.15098404984915   -2.08150031254114    2.34069797900528
H           0.93213243612234   -1.54995928762127    2.12151454897681
O          -0.50891552494158    2.24821335289095    0.33464663563373
H           0.29497170467091    2.03823699983601   -0.18537662688493
H          -1.53534416559599    0.92633411191333    0.00935024688234
H          -0.20330196501998    2.55391088388427    1.19080281320328
O          -0.70733184972120   -1.96358051595083   -0.04365875646839
H           0.13756165746242   -1.67006517162885   -0.54684081603887
H          -0.41643138246493   -2.10736375820508    0.94456750223467
H          -1.33274016682268   -1.09562030301881   -0.10221827795426
O          -1.06784175815734    0.29059373981424    2.63521352890832
H          -1.84362992684531    0.48795090854192    2.10494326732182
H          -0.44268577752070   -1.44405122933798    2.78428004492156
H          -0.29404004285714    0.44534198342174    2.06883220778686
N          -0.77014977553020    0.43377248246092   -2.68407018649675
H          -0.51565341384060    1.41334835102577   -2.73047749858809
H          -0.98439314766402    0.12286379451208   -3.62330718652658
H           0.06088609627646   -0.06337917592465   -2.36942652091670
