    26
        -50.45364708  Gyration_radius:  2.37547407494 Dipole_moment: 2.949
 S          -1.42263725422650    0.29570718118843   -1.05440977207153
O          -1.86337201825027   -0.74624976951399   -0.12190658456227
O          -1.63547342530982    1.62511741729244   -0.53170212839078
O          -0.07651323538518    0.04055526335341   -1.51675835542509
O          -2.35047633866262    0.15704903008022   -2.33106735706354
H          -3.17687218538533    0.52151970358808   -2.03192108518477
O           1.33684185842905   -2.27533110282190   -1.70023423517189
H           0.70908329076518   -1.67574047871183   -2.13185276900143
O           1.12415183494796    0.02105100219122    1.70338466686381
H           0.29515199441031    0.20578958294306    2.22177680899261
O           0.20975847967664   -1.99972181126661    0.55603652544717
H          -0.69345417615941   -1.59456956744133    0.28472999568114
H           0.70773449789852   -2.21192135480262   -0.33229154601280
H           0.69989674732890   -1.18290241364873    1.04514364220238
O           0.86266975696640    2.16224089953386    0.12645753079469
H          -0.08612288324986    2.06539728510577   -0.09989984436390
H           1.16618879506976    0.79874047113078    1.10371754832463
H           1.30963092794483    2.40836823597643   -0.68561969045979
O           2.66218512929211   -0.04179725920168   -1.03501937748067
H           2.83183698343259    0.13839855418865   -0.10720942436905
H           2.13359794889180   -1.72216083420108   -1.57501366592036
H           1.74447766870436    0.22518947500270   -1.20932908032895
N          -1.35788417581290    0.62056880177277    2.39956609412558
H          -1.92737910349266    0.38667359858119    3.20308047055755
H          -1.75918591818948    0.16127781416558    1.58424291712317
H          -1.44383520949806    1.61675027576853    2.23609870514829
