    26
        -50.44721203  Gyration_radius:  2.5104752285 Dipole_moment: 3.932
 S           0.15207189693121    2.02651041123078    0.62303087421657
O          -1.02497555023860    2.20165908854532   -0.24747896987465
O          -0.03188685411755    0.87795874703347    1.49718441360639
O           1.39084777580907    2.00891427657757   -0.10036227221597
O           0.14889117452510    3.30477047729492    1.55034291770719
H          -0.75047814408801    3.29914268986009    1.86008095151728
O          -3.20709467162453   -0.80027263303011   -0.79216253454716
H          -3.55347152560201   -1.61176764557599   -1.16653560523361
O           0.37189405580495   -1.25936921568077   -1.73027633440077
H           0.63802069750925   -1.68516173527164   -2.54662798316834
O           2.47428146879509   -0.34623547599234   -0.67536847139953
H           1.24377464490042   -0.89304418945683   -1.31517214916629
H           2.23436575794547    0.59318514808249   -0.54141684280368
H           2.48772283822415   -0.72091144003193    0.23968029078178
O          -1.12881736799221   -1.40485441633197    0.66129977027021
H          -2.53731519669992   -1.06491810388535   -0.10118291578116
H          -0.49856467315366   -1.62118480971116   -0.03926308496241
H          -0.78771509481964   -0.58078772656063    1.06695227386452
O          -1.41638069014755    0.54610955428179   -2.00660888107986
H          -1.21695484646553    1.32813740299634   -1.27374932883599
H          -0.65059336608070   -0.13261876649681   -1.93761184046422
H          -2.23654114214628    0.06617083916142   -1.62031821956457
N           2.08560707681976   -1.05268134324467    1.89653978129933
H           1.65343047176191   -1.92485315198876    2.17534541291403
H           1.36768392492998   -0.32947811662786    1.93959806017562
H           2.79219745399145   -0.82442021653998    2.58408071358799
