    26
        -50.45364702  Gyration_radius:  2.37553430457 Dipole_moment: 2.951
 S           1.11037794506671   -1.35899950768829    0.37731309546228
O           2.28500658325445   -0.52047360661630    0.32280924639997
O           0.34025483276660   -1.15874950250492    1.60874517687115
O           0.25666251367856   -1.27354326502697   -0.78661907976682
O           1.62486543427239   -2.85676172625369    0.42520017002621
H           2.32384076684361   -2.81944970902741    1.06964767211937
O          -2.41538525291109   -1.69355618983559   -1.07574373288187
H          -1.53263592027910   -2.09403278725231   -1.06731260140497
O          -0.76681049786745    1.88963738029824    0.08291820334920
H          -0.24565193092027    2.04038432653277    0.91710693548828
O           1.37568576098055    1.27016980299116   -1.38867115829659
H          -0.05609324572921    1.69974376037417   -0.56896200334106
H           1.80902229552955    0.64945273402628   -0.76599398695294
H           1.45370368984220    0.87631367095754   -2.25964186331984
O          -1.87251459263730   -0.19546588138348    0.89877989104609
H          -1.49065258900978    0.71887144303313    0.49280972059173
H          -2.20177521832188   -0.80122330773258    0.11991418925647
H          -1.03088390870716   -0.64780247615277    1.27386903981230
O          -1.27858800702542    0.24052330042199   -2.54336234257123
H          -0.55931371463822   -0.18894303093465   -2.05135145998825
H          -2.36855496315499   -1.05021234439218   -1.81094814582720
H          -1.32480843805624    1.14747282560473   -2.23131429769068
N           0.93548853472042    1.65033515567807    2.09497589869503
H           0.93401013994209    1.99237816350905    3.04771097538677
H           1.84488178726799    1.84778597114765    1.69433487836765
H           0.84986798524261    0.63614483024718    2.12378558899487
