    26
        -50.45364705  Gyration_radius:  2.37542995852 Dipole_moment: 2.951
 S           1.14155017816276   -1.14120801621280    0.78676184298402
O           1.43522468203759   -0.22898640395933    1.86716058215011
O          -0.17369753980223   -1.77215886598038    0.93305564179345
O           1.30102578923492   -0.57709967190882   -0.53519739160753
O           2.20038879465819   -2.31557599215062    0.88448335367010
H           2.20161018780670   -2.52185346685175    1.81327306640245
O           0.10926135675413   -1.20812335351940   -2.89354950306496
H           0.83583855410196   -1.38642098209957   -2.27653732914597
O          -1.49495149652880    1.38354037027871   -0.13356014375015
H          -1.77312858476852    1.13941770940403    0.79006036097096
O           1.00218185368876    2.02604868850215    0.56677565076817
H          -0.57459914738672    1.69841128319115    0.00821960001642
H           1.20458984449924    1.24802544218339    1.12751443710444
H           1.78544408482670    2.18743733672969    0.03730372746356
O          -1.56135503638634   -0.95714149076637   -1.00061564282296
H          -1.56393424578211    0.07899940184685   -0.72942734612253
H          -0.96431428992600   -1.08674141869259   -1.84238315963679
H          -1.05366940918755   -1.39514685936731   -0.22358398654114
O           0.66315084113080    1.37313319781864   -2.41685753911677
H          -0.02747054480798    1.94316190796914   -2.07027841289463
H           1.01628850666610    0.87079399596980   -1.66415755726149
H           0.24603354820587   -0.27336796234637   -3.14506657716257
N          -1.58463872843572    0.37162720372150    2.31036199905351
H          -2.34594575365428    0.13227256325389    2.93312275041625
H          -0.90362619121724    0.90239124371703    2.84050485261056
H          -1.12125723384486   -0.49143588073986    2.03261671371726
