    26
        -50.45364693  Gyration_radius:  2.37543035661 Dipole_moment: 2.955
 S           0.83657295340343   -1.38714058063491    0.77544361391160
O           0.22188965093143   -1.14344829663094    2.05937676252752
O          -0.09243029609689   -1.99943487796820   -0.17928368370679
O           1.49089068948919   -0.23547272788888    0.19517373582015
O           1.98030687299709   -2.45671395473667    1.01597983537093
H           1.55270043444854   -3.10205811882054    1.56903755862520
O           1.98183153160189    0.41014195491456   -2.39592898435286
H           2.28303273920423   -0.05593468508709   -1.60047582482157
O          -1.53530274718553    1.26917429767596   -0.44711559735002
H          -2.16915110736935    0.59435390240477   -0.08238469901567
O          -0.11895227899020    1.46156709211579    1.81060202971973
H          -0.97560029321987    1.46617940048972    0.33650569665609
H          -0.01848437117385    0.50623925017430    2.00528593597515
H           0.73219746071871    1.86459477568946    1.99231584848208
O          -0.41960101789596   -0.31651757875505   -2.02047440502917
H           0.53806463908199   -0.00780359306492   -2.28424404270696
H          -0.29442757241860   -1.08812835301128   -1.35542446254640
H          -0.87944342334968    0.44239234117044   -1.42057418585753
O           1.38578978109454    2.40037836359285   -0.69779823180936
H           1.94036074658247    1.34464997348840   -2.11224357685641
H           0.48235572928092    2.72228487196657   -0.65113575557145
H           1.42102201199108    1.58618114970489   -0.16923742699383
N          -2.58962899602415   -0.83473716567196    0.76370387772823
H          -3.44954419563671   -1.35165568851115    0.62921300156619
H          -2.49098195382188   -0.64642466969335    1.75430821421787
H          -1.81346699749514   -1.44266710323710    0.50937479606231
