    26
        -50.45116910  Gyration_radius:  2.66165662127 Dipole_moment: 3.373
 S           0.14657591997731   -0.64756321111459    0.88110226852594
O           1.63707624495497   -0.92981040247471    0.73577103239856
O          -0.25222744993366   -0.75872785063668    2.25391074395837
O           0.03788953424247    0.81945404415841    0.43823522129611
O          -0.60132942909718   -1.47581734704362   -0.03722501163489
O           2.09830132051305   -0.03700545104745   -3.11168607163646
H           2.92294644697381   -0.11007415428788   -3.59485552737837
H           2.24441836254557    0.63517046336843   -2.39497371271760
O          -3.16985642707997   -0.77245088204107   -0.27025571880422
H          -2.26002685113333   -1.12907726618048   -0.29644180729790
H          -3.63273614917522   -1.26940872717920    0.40767679296216
O          -2.45937298547361    0.41763761882584    3.14005388806563
H          -2.25785928886927    0.83825997684252    3.97762265555137
H          -1.67296871516284   -0.11991525085344    2.90931587315354
O          -2.31803766212139    1.52219102956474    0.72762715956241
H          -0.96989537567557    1.18395217334783    0.53970359350188
H          -2.78206083052831    0.81697149317283    0.21409944210950
H          -2.48817072327644    1.29112056103298    1.67039423538831
O           1.58971776498226   -2.04923249017147   -1.48897576135581
H           1.75086042461698   -1.35050243473834   -2.17766505414016
H           1.74271319425341   -1.41288045148565   -0.18363060476202
H           0.62974054527860   -2.13843406166905   -1.40262955986652
N           2.51670783270269    1.55300689317182   -0.98731921305260
H           2.70153498859040    2.54657957912612   -1.05060485505411
H           3.22095465562037    1.14110371355962   -0.38646482022886
H           1.62510466228227    1.43545245475500   -0.51278517857165
