    26
        -50.45567392  Gyration_radius:  2.46120316492 Dipole_moment: 5.092
 S           0.37416909196890   -1.90762299076330    0.08198302353387
O          -0.01924253327161   -0.80555366501230   -0.76115452171790
O           0.51187897114931   -1.39570894480000    1.52949380472333
O          -0.50748611136795   -3.03399338595878    0.04154772201706
O           1.79657151856544   -2.34086040095853   -0.28438333169520
H           2.35215772432234   -1.45895442867894   -0.20693491529692
O           1.22530969829588    2.26110134572612   -0.33048932320324
H           1.32565163321656    3.21398501226798   -0.34980379469702
O          -2.57996673275760    0.82532899800386    0.44886980060209
H          -3.34303762509931    0.94394700986602    1.01689643280147
O          -0.89723615468621    1.52627559133170   -1.69837665860526
H          -0.59861036730644    0.60468435723321   -1.61094965253951
H          -1.64165738337166    1.58351158058447   -1.08350498880432
H           0.47193823502334    2.04579794752764   -0.94468140824464
O          -2.77903832259415   -1.68703161348896   -0.40407385448197
H          -2.61853804033515   -0.11317298085822    0.13707022151517
H          -2.78352381976037   -1.67797908406704   -1.36385867145151
H          -2.02543715058619   -2.25890593183364   -0.15788305424189
O          -0.16889336202618    1.02477242501162    1.65881118203500
H          -1.06261623593407    0.99427829277334    1.25410290857512
H           0.24067328145587   -0.40203258784834    1.61846698221073
H           0.39742332221334    1.48993847353155    1.01056787732042
N           2.98141958810925   -0.09688278975837    0.04271471390436
H           3.86316885863853    0.02716105439176   -0.43750846635863
H           3.13767897443053   -0.00774688915874    1.03874289792961
H           2.34724293170602    0.64566357493759   -0.24566490583071
