    26
        -50.45567408  Gyration_radius:  2.46127510827 Dipole_moment: 5.084
 S           1.68497238940619   -0.82218221219173   -0.52160732816096
O           1.49811738516186   -1.16660624623839    0.96938827913392
O           0.58223103749417    0.00549557402097   -0.94487997788207
O           2.97811267363058   -0.24749988947683   -0.73389478122164
O           1.59328373827348   -2.18180019627022   -1.22048425901238
H           0.63022561058560   -2.51576020975497   -0.98890949915529
O           0.07687170067067    2.52313027582869    1.07832135381478
H           0.31388531096667    3.13924137416840    1.77349168713455
O          -2.53239619772605   -0.54461139925979    0.11851703113226
H          -3.45272202028112   -0.41028582990515    0.34938210018196
O          -0.53061597035374    0.01266621029090    1.88246499192849
H           0.67102062408039   -0.69885940604585    1.37662634688528
H          -0.33603983992370    0.94325038306182    1.63869462914284
H          -1.27321466046412   -0.26007883553300    1.30667925666241
O          -1.54502288186738    1.60358872286335   -1.03321298462721
H          -1.24429404852460    2.17475963132101   -0.31296175003044
H          -0.75411599709425    1.08430246510068   -1.25890894102906
H          -2.25278209402899    0.25850377567142   -0.39925789939903
O           2.28289241635574    2.31636430388645   -0.39510133364107
H           2.06445264410057    2.55305297376881   -1.29932014845751
H           0.89159429375936    2.41006279207248    0.52813254026318
H           2.65123301045260    1.41252080109502   -0.44972182075431
N          -0.76108307107445   -2.84550920711079   -0.47072156980285
H          -0.66244238420832   -3.19954617102438    0.47234076377338
H          -1.23951111931104   -3.53915525733767   -1.03057290696526
H          -1.33465253007976   -2.00504443299894   -0.43448374991664
