    26
        -50.45116913  Gyration_radius:  2.66173519904 Dipole_moment: 3.382
 S           0.18023728711614    0.97777852033113    0.47707550320385
O           1.28776463434657    1.49647442598978   -0.43213966556554
O           0.72505630228744    0.02947869395948    1.42184279468622
O          -0.53637904854050    2.07110400736100    1.06631806876047
O          -0.74086786269178    0.23739874354701   -0.50449696597942
O          -1.14041267328498   -1.33482518144718    2.76516027591425
H          -0.35813039221589   -0.92705813864488    2.34395740506278
H          -1.33135025607317   -0.80672585575852    3.54324516074746
O           2.50595853390486   -1.94764902349491   -2.00446006882378
H           3.22663833950655   -2.03813765869790   -2.62999122744234
H           1.81457948326749   -1.38508797728731   -2.44309748687206
O          -2.99704196577512    1.75237651699853    2.00703784646359
H          -3.52735997378101    2.49547602171663    1.71445405914954
H          -2.07163181489174    1.96647168993804    1.76538479162150
O          -2.70002256494170   -0.57991507545315    0.76895621056272
H          -1.61499633027335   -0.14548454906412   -0.00641264632228
H          -2.24999001957141   -1.07677551232915    1.49488910093234
H          -3.02418365001616    0.24446445947085    1.20072287775386
O           2.97725454150586   -0.28576898992602   -0.01517288915626
H           2.46019364238371   -0.57052021647598    0.75197728352473
H           2.85632168892566   -0.98107267328766   -0.71539414909352
H           2.07156562940917    0.81353648380343   -0.33633594562842
N           0.73440883917808   -0.20392025049495   -3.02290322671900
H           1.17847413496413    0.69740608075366   -3.15372207602748
H           0.11519488589984   -0.10920827269763   -2.22193489202193
H           0.15871859935373   -0.38981625881955   -3.83496013872563
