    26
        -50.45567408  Gyration_radius:  2.4612182295 Dipole_moment: 5.089
 S           0.58543881032840    1.76195802515959   -0.58329618283867
O          -0.70291762215193    2.00034093268155    0.22886637742820
O           0.83739485805869    0.34304834966461   -0.64193607891460
O           0.48732558551759    2.40378125199692   -1.85843521048099
O           1.67325915021348    2.43341284542227    0.26003409102499
H           1.64818837124969    1.90679558100628    1.16232701899765
O          -1.80244391438690   -1.34361026950627   -1.57548567246115
H          -2.67190704177165   -1.44875116034732   -1.96537710378008
O           0.29229228665645   -1.64469159281834    1.98382548889707
H           0.11707704808182   -2.42186231527461    2.51645500835500
O          -1.73752501772437   -0.20190764312177    0.87609366208485
H          -1.15377869412184    1.11444193975258    0.51291549074138
H          -1.81002164173771   -0.64283645479935    0.00221672165467
H          -1.03853966317051   -0.68777197491670    1.35849176750437
O           0.63154621083040   -2.30909222383354   -0.53796873318543
H           0.92943048461066   -1.39885230583082   -0.70799251251574
H           0.51041838410075   -1.97423624627626    1.07000842168936
H          -0.25394955314273   -2.33488729536960   -0.92616891764123
O          -0.54688211047373    0.33718221659488   -3.21206082739870
H          -0.25576781525211    1.17047998150988   -2.79205493716771
H           0.25984313169154   -0.08588647802958   -3.51458764419388
H          -1.32224207549718   -0.70116302490844   -2.15517539685817
N           1.39150989690188    1.07447753841344    2.40973463273058
H           2.18082856195147    1.05303433542135    3.04227120200755
H           1.15281576483132    0.11788690475693    2.15549274100739
H           0.59860660440563    1.47870908265135    2.89180659331298
