    26
        -50.45567421  Gyration_radius:  2.46116962481 Dipole_moment: 5.085
 S           0.69810080324864   -1.78076444903747   -0.35901452397991
O          -0.42729343242226   -1.01756574502050    0.12190397238584
O           1.85219374731918   -0.80918094232729   -0.67675165370333
O           1.15007450913298   -2.80392540210244    0.53342218318546
O           0.35156663213411   -2.38754321130391   -1.72167848252375
H           0.05654124690656   -1.56303544780474   -2.29288707728151
O          -1.23484168608050    1.93708637480538   -1.20217820892296
H          -1.59943612318956    2.81647566091277   -1.31206406712832
O           0.41338622152235    1.06793925152391    2.49471016138169
H           0.98268422933313    1.41724144815607    3.18241777923799
O           1.20304653599279    1.54139292773621   -0.04902868566533
H           0.93672580448805    1.42219099396964    0.88803728631951
H           1.61815363064147    0.16738782760298   -0.43175216425112
H           0.37445254263987    1.72294680588751   -0.53666177059570
O           0.52625241242957   -1.56978236729044    2.82676749064465
H          -0.36751635431500   -1.89525339824005    2.95566290442201
H           0.86813960663487   -2.06205963579607    2.05452550356461
H           0.45748489580036    0.08320591310001    2.58168526901506
O          -2.01612626047072    0.89098716593598    1.08047320313341
H          -1.64681538389567    0.04107582853970    0.78473694321717
H          -1.38065145933481    1.19709430148410    1.74224385673080
H          -1.64741484854740    1.56341325071134   -0.37659542339157
N          -0.25154054544311   -0.23327315634863   -2.96259539623309
H          -0.83378643746160   -0.32706319889656   -3.78461142453085
H           0.62920092447153    0.18565408029057   -3.23317635552091
H          -0.71258121153552    0.39535509351242   -2.30759131950894
