    26
        -50.45567423  Gyration_radius:  2.46110850713 Dipole_moment: 5.086
 S           0.72442534124370   -1.80525501070661   -0.05927414526807
O           0.26191407391368   -1.58966759009360    1.39555080699595
O           0.49259647936468   -0.59021458518355   -0.80105148364555
O           2.07844963334633   -2.26761915977158   -0.08000381737807
O          -0.21269942799820   -2.89994647491220   -0.57746741530041
H          -1.16271003484681   -2.46986436525156   -0.50161575707945
O           1.68408303514481    2.04153718306205    0.72914890366346
H           2.23033446898014    2.50084757109739    1.36922435799488
O          -2.24288411020813    1.25945591425945   -0.32303618787767
H          -2.84751873681300    2.00265615741149   -0.30355125723340
O           3.26508055423576    0.12845632062135   -0.23043014341064
H           2.93414663957507   -0.78050105371975   -0.08951574866356
H           3.31669926882520    0.23127935335394   -1.18338092350264
H           2.24376718186680    1.30680671613486    0.37395973443386
O          -0.49973623219361    0.78853926116416    1.71887428745692
H          -1.19553998979782    0.93385821785348    1.04654344016031
H          -0.05925264985842   -0.62156480435111    1.56309543707373
H           0.28391002558754    1.28526644337284    1.39893645633538
O          -0.00034425511830    1.92330187371981   -1.52533913030040
H           0.24923173697469    0.98315965146884   -1.51669111643244
H          -1.46500653002237    1.54499722423800   -0.87515771619026
H           0.56042247077221    2.31369479060333   -0.84081548122216
N          -2.44279938746252   -1.69486248026011   -0.23324376329650
H          -2.66307948016648   -1.79685042981971    0.74935376490348
H          -3.22895187085626   -2.02301800075836   -0.77896462894411
H          -2.30453819448699   -0.70449271352971   -0.42514846327254
