    26
        -50.45567402  Gyration_radius:  2.46120005687 Dipole_moment: 5.091
 S          -1.29162891928333   -0.88449906099983   -1.15572324299417
O          -0.92980410308896    0.34569643984340   -0.49550144752048
O          -0.27928701285698   -1.97538298155092   -0.75368264111897
O          -2.62524838803091   -1.33225126088578   -0.89378100187596
O          -1.07610230431070   -0.73038235520115   -2.66402492300679
H          -0.08031364269857   -0.42225736493746   -2.74217682433902
O          -0.43917889840599   -0.06709691847759    2.70935510010238
H          -0.50521611792186   -0.53347471004160    3.54429557556309
O           2.25686969052480    1.26920387866128   -0.13521324814433
H           3.04996399081993    1.69444788074004    0.19422310814669
O           1.34671460727321   -1.06473998388400    0.93941344471062
H           1.74731614605890   -0.27717350152719    0.51922000448106
H           0.73543448472767   -0.71622920838866    1.62374140900074
H           0.40558682944108   -1.63393476739312   -0.05858181582372
O          -2.83685358610370   -0.36915894835992    1.59618896926545
H          -3.19257626258517    0.50263708125868    1.40972113876620
H          -2.82812925732602   -0.83081620254993    0.73455347818371
H          -1.31472147843481   -0.18588455617757    2.26351714460853
O           0.13021109493408    2.18279446074814    1.11337876730566
H          -0.41852999754063    1.71297163851915    0.46204987939592
H           0.04257390216177    1.64676709920821    1.91368259289432
H           1.48961301881211    1.72904365723598    0.30191476166561
N           1.39431499577647   -0.06566553076904   -2.63619182360526
H           1.56260400644911    0.50881944638111   -1.81257708692545
H           1.74384892128733    0.42499135419764   -3.44896402818668
H           1.91253828032104   -0.92842558565173   -2.52883725054784
