    26
        -50.45567387  Gyration_radius:  2.46118317685 Dipole_moment: 5.093
 S           1.74463092031164   -0.85985570867538    0.05550857026029
O           0.31734585413050   -1.06172503005689    0.00549886872601
O           2.02492339974714    0.65245071242785    0.15917712386229
O           2.40872114615603   -1.55575748192172    1.11490465411218
O           2.35693514602673   -1.24863612166477   -1.29318701367941
H           1.81743965657123   -0.67935871553679   -1.98434768680828
O          -1.68257093387232    0.98943086882833   -1.70543300396511
H          -2.45932799021246    1.46620134809546   -2.00158724598350
O          -1.24425299272358    0.54150991915233    2.38735666146273
H          -1.30800911850514    1.00916948269798    3.22182194595737
O           0.40690954008252   -1.48307170022761    2.89220783775853
H          -0.04449310458548   -2.30027308906890    2.66933294359193
H           1.22131264233073   -1.48625284781749    2.35153406540411
H          -0.61376129850156   -0.20505997821900    2.54346179937966
O          -2.32518384822349   -0.76916222389876    0.14069137313870
H          -1.42561450553852   -1.13200097028332    0.06687935657499
H          -2.30832750850138   -0.28911963913194    0.98017946776174
H          -2.00805413024435    0.27795757577463   -1.08948922325332
O          -0.14130798870672    1.92284324320795    0.33951732299408
H          -0.66263761441910    1.66152292900199   -0.44611618531454
H          -0.56599184891740    1.47089109217901    1.10020238571972
H           1.15470091913074    1.20557617973225    0.23383301050683
N           0.97817483952855    0.28802084182372   -2.80408331836017
H           0.91243545968888    0.02973127831642   -3.78011434988732
H           1.40897758508116    1.20153720095003   -2.73680372523363
H           0.03702577416838    0.35343085431741   -2.42094564472590
