    26
        -50.45567421  Gyration_radius:  2.46112294109 Dipole_moment: 5.086
 S           1.57684035996375   -0.99933331816462   -0.54952184824919
O           1.68626684467201   -0.85796796483829    0.98179347103738
O           0.39131879186843   -0.30740690030705   -0.99232810023870
O           2.78966123409928   -0.56197914432998   -1.17031881171243
O           1.39154686026625   -2.50470116654786   -0.76067859278967
H           0.49996518493111   -2.71799438613396   -0.25785155499436
O           0.20995022325970    2.72951570261433    0.20414776345988
H           0.55698706656657    3.52387038480187    0.61357869402478
O          -2.44668172112064   -0.39670799863205    0.75970426025460
H          -3.31040416238968   -0.16816415466300    1.10620204343463
O           2.09953979809440    2.00155055971359   -1.52204207335532
H           2.47645710413612    1.11409631972870   -1.36098712358826
H           1.70520232833554    1.95139384092896   -2.39573431156433
H           0.90781936436880    2.42399711390056   -0.42742293470601
O          -1.75765784230596    1.25348234565982   -1.16835525226053
H          -1.00987700476416    0.66385244183676   -1.36683284275567
H          -2.29340882270627    0.19631387999958   -0.02535115591587
H          -1.34133840801036    2.00966538177200   -0.73211080044926
O          -0.16241593532154    0.61489214667485    1.84987902618149
H          -0.99321832001718    0.20177814124667    1.53938258767732
H           0.93990412594577   -0.25887391165833    1.37228194225198
H          -0.04378055658100    1.41669529135268    1.29649838833945
N          -0.75603557919866   -2.82357069730559    0.59216386742066
H          -1.31306603836162   -3.64099540907878    0.37991698907694
H          -1.33572088903785   -1.99504808259298    0.47261427763784
H          -0.46785400669045   -2.86836035597762    1.56137210178186
