    26
        -50.45567449  Gyration_radius:  2.46096609051 Dipole_moment: 5.084
 S           0.73425278644769   -1.35222745434195    1.19232545412681
O           0.44998596331316   -1.00158091954421   -0.17748771012718
O           0.19722761350884   -0.23421201145916    2.10813105767047
O           0.21023224947009   -2.61814859482854    1.60522331433808
O           2.24783268104251   -1.31011744410240    1.42076760979193
H           2.51896106589581   -0.34897200462594    1.11071723998165
O           0.72598927347621    2.13682179948761   -1.27841790136233
H           0.61368938092373    2.93055745262525   -1.80349954394536
O          -2.67226033170356   -0.13217458009245   -0.60958856616090
H          -3.59891229020526   -0.07477712234126   -0.37066544053513
O          -1.97516005742686   -2.61233917982251    0.05673284472499
H          -1.62846719150130   -3.04759636928162   -0.72538055376099
H          -1.25861729160788   -2.66940665905007    0.71914678859530
H          -2.38161372733478   -1.04123549349323   -0.34804582814406
O          -0.51021772490059    0.10470556260045   -2.39985180809865
H          -1.42259694955044    0.14220680271212   -2.08108614788562
H           0.32545064245441    1.39298674872081   -1.80533973223865
H          -0.06849053885251   -0.48029729992988   -1.76039722992352
O          -0.99665373602804    1.50921015265642    0.73843305251321
H          -1.64479787348583    0.95673336505970    0.25067141652532
H          -0.29819773888922    0.50061751865249    1.57624728249620
H          -0.34846587549367    1.80668802442564    0.06861395239934
N           2.68094143627357    1.10352443966249    0.69269830135268
H           3.62803352507342    1.33876353047372    0.42573099900591
H           2.41129105317549    1.68034250890746    1.47950222317746
H           2.06056365592498    1.31992721692874   -0.08518105451889
