    26
        -50.44721205  Gyration_radius:  2.51044963672 Dipole_moment: 3.934
 S          -1.98957733248597    0.70797355726590    0.24282508435907
O          -1.23601241057600    0.69307838373516   -1.00181245096340
O          -2.23857939450346   -0.66888848560503    0.70751059410380
O          -1.41756640903613    1.54947995782324    1.25417457133194
O          -3.42354215997547    1.27120581332333   -0.10426914613420
H          -3.76090809235331    0.57422573466648   -0.65674057403595
O           1.74852683044549   -0.53655738438439    1.17227404387121
H           2.44438203687444   -0.67996790618702    1.81552368745095
O           0.04566055522043   -3.34717169825043   -0.58827579116795
H           0.79646216974535   -3.93810121343559   -0.66398106271770
O           1.21085415259869    1.92810898153460    1.22985552074937
H           0.24421402339990    1.91467682379616    1.38259974760366
H           1.54324897289708    0.47484036428670    1.21124396071174
H           1.29948098449941    2.23374816121447    0.29356261471439
O           0.77992476462225   -0.99645133316622   -1.44381650264107
H           1.35532871560843   -0.73081717980753   -0.71363783201210
H           0.28341849463931   -2.51469083365392   -1.08485586214339
H           0.00724396530975   -0.39620512029079   -1.39245248406661
O          -0.33600459778980   -1.97353122235248    1.52393809501017
H           0.48408584014137   -1.36192066099885    1.45114435805980
H          -1.20285987543737   -1.38203350348737    1.22885394743855
H          -0.23852612559739   -2.64631341548273    0.75575805030919
N           1.02120057349969    2.45620730482367   -1.40638637245329
H           0.81877806426751    3.40056776566810   -1.70858187450477
H           0.14229034285541    1.93869178669087   -1.40043211618019
H           1.61847590133359    2.02984533252405   -2.10402219674096
