    26
        -50.45567406  Gyration_radius:  2.46118861643 Dipole_moment: 5.089
 S          -1.04212349659977    1.33337133926275   -0.96090183606486
O           0.22443486373269    1.10606493245664   -1.80970330948482
O          -0.95255306558210    0.52069596075271    0.22725344216219
O          -1.22372345558224    2.73134638030555   -0.71537712301942
O          -2.17189700347264    0.80529459553722   -1.84969608290432
H          -1.93479235463356   -0.20438514036681   -1.97905215621220
O           0.30108849134131   -2.57188534437394    0.14645007311054
H           0.70682374969966   -3.39714977707604    0.41613188011602
O           1.90944736494016    0.88465009378995    1.76242505086475
H           2.73739324639654    1.32518157674916    1.96106607751590
O           0.13866384130918    2.86281676341709    1.58657698895715
H          -0.56893063180708    2.68854963849946    2.21128646856946
H           1.23656354458509    1.60414917190933    1.66774600242720
H          -0.30131693571448    2.93679089439599    0.71680379308580
O          -0.11239493450946   -1.02011420608334    2.22898686186197
H          -0.63343629830314   -0.43446251565270    1.65308537597473
H           0.08069003768386   -2.08067348694158    0.98390248382848
H           0.71191632964511   -0.53236324644564    2.36351813020077
O           1.81145766275811   -0.42923998499677   -0.60004179805789
H           1.90181233366254    0.03067061905681    0.26237594517081
H           1.29852886714192   -1.24104344595579   -0.41240975827868
H           0.89874216953886    0.47730303091162   -1.34196216660467
N          -1.36764449238068   -1.61008232367187   -2.10553639862744
H          -0.65133143641565   -1.58974532969398   -2.82030307339653
H          -2.06396531035978   -2.29778812705123   -2.36190261679574
H          -0.93345308707306   -1.89795207873320   -1.23072226439721
