    26
        -50.45567412  Gyration_radius:  2.46122857693 Dipole_moment: 5.084
 S           1.68187801326361    0.97703845052889    0.06329517019916
O           0.59517843360723    1.99180156396609    0.47089569189016
O           1.04499343901179   -0.27804299446827   -0.25195696376829
O           2.48797186077212    1.51767286915432   -0.98812360374400
O           2.51839697621284    0.81333097642476    1.33553891563606
H           1.83771435643393    0.43588675708401    2.03365734648698
O          -1.45569343336608    0.08891595089132   -2.32539942616949
H          -1.98211159766618    0.55493203005829   -2.97713937635599
O          -1.53353472405980   -1.43032006590255    1.52506198299164
H          -2.32094900260031   -1.91415930962580    1.77843857815714
O          -0.70554626567206   -2.19169171949701   -0.85196169286005
H          -1.21832833234971   -1.83462929692695    0.67147626581163
H          -1.19629598663762   -1.65258857451153   -1.48756214362252
H           0.10884059312564   -1.68183681564129   -0.70031744843310
O           1.05946225887169    0.57291100545944   -3.04672955234524
H           1.59478547219504    1.03227394799890   -2.36993152569192
H           1.50024735956764   -0.26825301334019   -3.18636922775463
H          -0.51184378543048    0.27371111985510   -2.55817016495189
O          -1.68871437650666    0.96036218669167    0.22500206257928
H          -1.66860447169256    0.14699027983557    0.76843032158250
H          -0.35706640431299    1.59934611120438    0.38299129321178
H          -1.66080525842866    0.65531514492838   -0.70741263085603
N           0.67898438554016   -0.02356757008945    2.90416442545638
H           0.97652619337317   -0.53169630858250    3.72682396955770
H           0.04546240990950   -0.61402586306011    2.36864272593561
H           0.16905187683884    0.80032314756412    3.19665502705577
