    26
        -50.45567443  Gyration_radius:  2.46102028066 Dipole_moment: 5.082
 S          -1.16453023097180   -1.05491394743499    1.14882856360129
O          -1.46822614210694   -1.51609307733939   -0.29065600917768
O          -0.18368524343220    0.00121605132310    1.09674473875988
O          -2.38015330410077   -0.70760905571048    1.81905653873773
O          -0.54032611256113   -2.29230921998581    1.80026877532498
H           0.31702186308412   -2.46829397653631    1.22829934176259
O          -0.99117960790979    2.33572303243254   -1.04480899060260
H          -1.58855098345364    2.82097584550173   -1.61642368778603
O           2.37000514386998   -0.08147752000506   -1.05033853969375
H           3.09351125374730    0.19338882533419   -1.61543095842400
O          -2.41263634482203    1.88785095361396    1.15972027458903
H          -1.93519650326454    2.25740651800263    1.90593881485799
H          -1.50608143747916    2.13482477205229   -0.22400963521475
H          -2.53684541544495    0.94333129276533    1.37881964587865
O          -0.20614518174580   -0.09303372396944   -1.94082362742066
H          -0.96363590859975   -0.95251079977915   -0.99503274986550
H          -0.48930080730547    0.80716094158470   -1.67120663217776
H           0.73467453290177   -0.16138206050561   -1.68100372659360
O           1.44292443604374    1.96085348377585    0.32247557989852
H           2.13626164434407    0.70774977588770   -0.49005131117501
H           0.78752554444201    2.38624235543070   -0.24757403241625
H           0.91667574805522    1.33311362432126    0.84709221054984
N           1.45432251380860   -2.59235003114455    0.22692846743146
H           2.23638831205248   -3.13062739788924    0.57651539029728
H           1.78975413165056   -1.67018753790868   -0.04484850158494
H           1.08742809919947   -3.04904911381737   -0.59847994955819
