    26
        -50.45567396  Gyration_radius:  2.46129141256 Dipole_moment: 5.086
 S          -1.05598928803047   -1.56900041336505    0.45820089733685
O          -0.82189560926840   -1.65601327394217   -1.06304285779499
O          -0.45384113526962   -0.35336478028386    0.94806699638864
O          -2.45079136572344   -1.70286856323707    0.74836126719283
O          -0.28663585474294   -2.77213217020297    1.01121035417234
H           0.70283657731687   -2.58365050337699    0.73201510578055
O           2.47396311020226    0.74567663839721   -0.21675215178834
H           3.20344250644988    1.32284356083027   -0.44721754028076
O          -1.33442942388456    2.25939644945775   -0.80792494096809
H          -1.87968403868690    2.74301144995531   -1.43072945632389
O           0.66153423054232    2.05367677945151    1.16902123545331
H           0.08032744367325    2.47004097854162    0.51763632159181
H           0.22791838023904    1.20223745706656    1.35127524151664
H           1.88072718669521    1.27044625700393    0.38656686951913
O           0.33866164179385    0.42373904053384   -1.88005390280542
H          -0.34488166660151   -0.81641086881945   -1.43232737200667
H          -0.25821978753973    1.12320667166258   -1.53690464893272
H           1.15713293566355    0.49225445082377   -1.34826782724804
O          -3.07728827704642    0.89967005462671    0.67309955282380
H          -1.96060652934169    1.72476458381321   -0.25896280856547
H          -2.96930041351186   -0.07123167785003    0.63715591667726
H          -2.93652124207458    1.13348394143283    1.59337887479985
N           2.04859993613242   -2.16240475712652    0.16205404382872
H           2.83256445066529   -2.58474633540147    0.64213260718440
H           2.14989109523104   -1.15007309066595    0.20220892122130
H           2.07248513711547   -2.44255188932545   -0.81020070877104
