    26
        -50.45567391  Gyration_radius:  2.46122269249 Dipole_moment: 5.091
 S          -1.89086836850428   -0.33912930081633   -0.30972006298160
O          -0.61592209874271   -0.05188364298048   -0.91987435270624
O          -1.71755375225969   -0.32804987990155    1.22197558720624
O          -2.94774012040216    0.54729136633112   -0.69043039983641
O          -2.28323539926027   -1.78695929145607   -0.61810123984436
H          -1.46078398148228   -2.34221458870312   -0.29005835216534
O           0.79793698315509    2.60244798644569    0.35995341157539
H           0.81548281496994    3.42035296332977    0.85971165662352
O           2.23259884394891   -1.28175606367338    0.30962732880668
H           3.16189976897043   -1.39558987651338    0.51418200074549
O           1.89556404401370    0.69226636649088   -1.39494224869478
H           1.84205898055529    1.49684838620934   -0.86086450620475
H           2.18570615721519   -0.59550663643629   -0.41015754645270
H           0.96731690071989    0.41628695545204   -1.48647039069452
O           0.63741538619651    0.33122096585421    1.82058151066803
H           1.21385436051271   -0.30657911766659    1.35340087662593
H           0.72947797709823    1.17722117837015    1.33152256346544
H          -0.75897394622916   -0.06192586045830    1.50337712463928
O          -1.45443239622564    2.74117507392419   -1.04962666661140
H          -1.23297890636515    2.64350668781496   -1.97845378465527
H          -2.09356015945033    2.02542381403431   -0.86312666373654
H          -0.04616519762599    2.61936877443216   -0.15637627190585
N          -0.21098229966700   -2.95865431016800    0.31978104686931
H          -0.01536318041233   -3.88779932409638   -0.02953252211586
H          -0.34978762150685   -3.00961991575695    1.32109047795929
H           0.59903520077872   -2.36774271006250    0.14253143342067
