    26
        -50.45567384  Gyration_radius:  2.46130672025 Dipole_moment: 5.088
 S           1.59364951773483    0.00573023221985    1.11649896162922
O           0.95437259684745    0.56244748041782   -0.05045639008721
O           0.67412848393311   -1.07955876112842    1.71101821923354
O           2.89894926035421   -0.53174437967535    0.88222554430635
O           1.65324978315567    1.07019888496631    2.21584980687893
H           0.65931040555120    1.37832536290205    2.31732670898135
O          -0.08540320267095   -1.74904988634050   -2.11494045438585
H          -0.12115401406835   -2.63468858683632   -2.48021202852165
O          -2.33396789907363    1.11755335949763   -0.14885621647704
H          -3.22390469387214    1.26094640678429   -0.47406540586396
O           2.50033352416524   -1.33876043900763   -1.63986599801428
H           2.77174417585632   -0.54966644496316   -2.11425087462914
H           2.71742826697733   -1.16087511340009   -0.70347512836502
H           0.86720903194051   -1.58096532028883   -1.90638399107997
O          -0.62493402037953    1.01546740804153   -2.14489324040176
H          -0.62386503350579    0.09586181756506   -2.44449002937550
H          -1.73149679823985    1.19076034119256   -0.93824423112499
H           0.09556944407362    1.04409457780938   -1.49201523674762
O          -1.35178147459918   -1.39375614652577    0.24903611488887
H          -1.76329697196798   -0.50879614583604    0.18002203220298
H          -0.93434611535055   -1.55927768964487   -0.62366654040690
H          -0.17008839368907   -1.23369514416886    1.13475948958399
N          -0.84131480345892    1.61889048350125    2.36072706712647
H          -1.23776538243831    1.55606734173333    1.42495093236367
H          -1.08871769821711    2.51633037302762    2.75679935128684
H          -1.25390797905776    0.88816001815681    2.92660152700185
