    26
        -50.45567413  Gyration_radius:  2.46108630267 Dipole_moment: 5.093
 S          -0.33746877868092   -1.09090410619365   -1.57561588659802
O           0.31779714698993   -1.02132347280793   -0.29258504114983
O          -1.01364127628970    0.26547951019450   -1.85757617946471
O           0.51958838954956   -1.44770173570420   -2.66453534983778
O          -1.51273962713833   -2.06889825032060   -1.48980533332095
H          -2.07579029797869   -1.71037167907216   -0.68530341255338
O           2.21060982772402    1.62860256878078   -0.01171400645333
H           2.70707794739632    2.37949461643347   -0.34145047961364
O          -1.06200177598170    0.57210024583686    2.29451004587397
H          -1.16831159906516    1.03993038572418    3.12408550193027
O          -0.48122355597286    1.89703218633520   -0.01538344558483
H          -0.81593855063619    0.96039967971217   -1.11811030039603
H          -0.77561086390509    1.46274434498989    0.81049608662563
H           0.49926745860939    1.85566214831281   -0.00009416267035
O           2.76473117433042   -0.33022940716463   -1.72505073719455
H           1.98609584010210   -0.69216812432428   -2.19230584161520
H           2.38169550340829    0.89077436859049   -0.64862952844823
H           3.12429238804853   -1.06880958319991   -1.22854957258589
O           1.43152504149076   -0.20192468912246    1.98218180399767
H          -0.12990912849681    0.22194956526285    2.28733120134117
H           1.14143128239973   -0.72987488263432    1.21838914420009
H           1.89216075206138    0.54691473944170    1.57903741517610
N          -2.78127023222156   -0.98131265457668    0.44748102391713
H          -2.10076478807788   -0.60026428044433    1.10209104762371
H          -3.42720955472119   -1.56884358489545    0.95861638974163
H          -3.29439271294508   -0.20845791915547    0.04248963705471
