    26
        -50.45567409  Gyration_radius:  2.46117328735 Dipole_moment: 5.086
 S          -0.75446910417880   -0.22873232657889   -1.77917607434003
O          -0.43621161869630   -1.65088345037918   -1.27613935827265
O          -0.33518267579447    0.71919226980760   -0.77617069916905
O          -0.17548757952209   -0.02467283520882   -3.07175355661877
O          -2.28245073603447   -0.21503180131720   -1.87962819925484
H          -2.59728929339342   -0.38945782648219   -0.89792796019060
O           2.72959360776888    0.18515849358585    0.22891916563495
H           3.61180585314389   -0.18501259239505    0.16759705306890
O          -0.74397794067403    0.11912165079893    2.48029845090135
H          -0.63833762300296    0.15029972546645    3.43222428347679
O           0.76750059258929   -1.53926171540058    0.93277841885851
H           0.18274178067303   -1.02247571744363    1.52289806723954
H           0.05827064857286   -1.64174617027741   -0.36848479763975
H           1.51494374738150   -0.94222232816859    0.71351598101311
O           2.17263845817389    0.96840356824477   -2.25232514355769
H           2.48861624487931    0.46295229991608   -0.68976473211545
H           1.38847628251274    0.53872752866924   -2.64734905998571
H           1.96160214262638    1.90460430646372   -2.23190935817829
O           0.79054267632319    1.91196906807173    1.32034023052300
H           1.65041500300370    1.48557209366198    1.20085029476009
H           0.32609536971279    1.72773405713220    0.48571442283134
H          -0.21895290339723    0.88213403215388    2.11462540650887
N          -2.83578906190821   -0.73313530868825    0.56361648334908
H          -3.75645343717664   -0.46932293698061    0.88967580907703
H          -2.13996564610722   -0.27947012765341    1.15257014323160
H          -2.72867479748382   -1.73444398699625    0.66500472884929
