    26
        -50.45567423  Gyration_radius:  2.46122142364 Dipole_moment: 5.085
 S          -1.34421376796242   -1.15384230354865    0.80558095944273
O          -1.05501837435010    0.16660008282577    0.30251018168257
O          -0.05876019372294   -2.00160307922812    0.73104171019406
O          -1.87471452700696   -1.18316754787403    2.13421799774904
O          -2.30062124848614   -1.86294529823181   -0.15763044850461
H          -1.81422373575497   -1.80112666324222   -1.08074357100496
O           0.94093358891303    0.64111761712624   -2.33012446137107
H           1.54020217649145    1.04989270475899   -2.95634718127026
O           1.61812159717102    1.45537168710678    1.67277917137492
H           2.30709928343672    1.52286031492764    2.33596082344284
O           1.86249927844083   -0.59063768607568   -0.07999880273148
H           1.83146031102679    0.15721598227267    0.55485222385242
H           0.75161078428288   -1.45197582038819    0.39945620699066
H           1.57126821803795   -0.21992794985806   -0.93739716405586
O          -0.59403672554346    0.97409561675555    3.07109808559401
H          -1.03670598601534    0.13038989931010    2.85247327485168
H           0.78568323794553    1.25176181266439    2.16760790910701
H          -1.23648683103314    1.65576767647371    2.86148107276682
O           0.14274638714359    2.39104083632587   -0.53666476946927
H           0.60100336411578    1.37370904669317   -1.74784418767080
H          -0.50837933515122    1.73683990351852   -0.22969105456724
H           0.81635395372013    2.38441089219932    0.15736146196719
N          -0.90726477036208   -1.67455158109023   -2.29513270157259
H          -0.21636276330101   -2.41219840269408   -2.24079406529518
H          -0.41823488677849   -0.78159368733163   -2.28148434338197
H          -1.40395905525974   -1.75750406340597   -3.17256831812231
