    26
        -50.45567416  Gyration_radius:  2.46118509082 Dipole_moment: 5.083
 S           1.11478951744286   -1.32182892140666   -0.89332740206255
O           1.48738204487421   -1.40323012514654    0.60049057519048
O           0.13233761316579   -0.28020922461975   -1.06681911828875
O           2.29616794360023   -1.16556104585625   -1.68546004733551
O           0.46686608256386   -2.67977559157119   -1.17830174898437
H          -0.36312159078945   -2.69730941146969   -0.54259875870489
O           1.02827039654808    2.51829185336940    0.36678203303711
H           1.64922581628444    3.12949543707128    0.76668329441875
O          -2.31604342070590    0.20649277708608    1.14730327015519
H          -3.01361119772892    0.62137748856489    1.65681349021889
O           0.29920258278992    0.40442813933482    1.88955411346969
H          -0.65246656977485    0.27878705667335    1.70036451278725
H           1.01454724606629   -0.67434330756746    1.16037497822462
H           0.56475322270873    1.20376443021618    1.38582558754370
O          -1.46553493461700    1.82394583890474   -0.74352136548570
H          -0.78602437257672    2.37591063408777   -0.33236297714098
H          -0.96150117622420    1.07922340206618   -1.11445065089077
H          -2.11313748157551    0.82507073556355    0.39381380954774
O           2.34721343467908    1.51183135441316   -1.71369815969756
H           1.50511423267489    2.11074793111222   -0.39853453443747
H           2.46539199968196    0.54178671642063   -1.68956463175570
H           1.83428099075598    1.68203486750985   -2.50698996912224
N          -1.45428758935519   -2.55402397801723    0.50613878319391
H          -1.05137877944374   -2.79354070602127    1.40317862393081
H          -2.25108847340335   -3.15387726085133    0.33626712775126
H          -1.77734753764255   -1.58948909986617    0.55203916443393
