    26
        -50.45567401  Gyration_radius:  2.46128162382 Dipole_moment: 5.086
 S           0.26601841884185   -1.76873957156810    0.76661302308874
O          -1.13869624285510   -1.79763552601684    0.13207575687455
O           0.82148625440634   -0.44865808282607    0.59592295048770
O           0.20040512847408   -2.21748712203569    2.12377518773995
O           1.06437256485200   -2.76569004637631   -0.07837953882504
H           1.03441239786825   -2.35640230704316   -1.03992074538572
O          -1.24916913313047    1.89768436473066    1.54106283710908
H          -2.01698109388877    2.24555412796896    1.99763262762980
O           0.37684607128167    1.28952934784851   -2.21745034453636
H           0.30750660743335    2.01770215325096   -2.83653742498310
O          -0.18592743698424    0.17346613106391    3.26629331823059
H          -0.84783116422812    1.23329395677327    2.15484871484647
H          -0.13560530819820   -0.74703885295425    2.94111832794313
H           0.72414961219372    0.43225980274174    3.42807180490619
O          -1.75322358554524    0.49258481164253   -0.71500740558029
H          -1.03574088223123    0.74487668862706   -1.33055025256951
H          -1.42269879558546   -0.87123710260931   -0.22816123968325
H          -1.61426754386599    1.03744476185928    0.08938289660964
O           1.17887475465295    2.14875463977161    0.13503247942986
H           0.77828152815691    1.66443163190581   -1.38697151543064
H           0.37800949452823    2.42252295437176    0.60312954104898
H           1.29443092292619    1.22080760523383    0.40283258439312
N           0.80013017496301   -1.63939615509075   -2.36022124763213
H           1.48537900340050   -1.87359791049131   -3.06666871634462
H           0.80710621770723   -0.63061311209186   -2.22223564617398
H          -0.11726794517418   -1.90441718868722   -2.69568793318781
