    26
        -50.45567405  Gyration_radius:  2.46127545021 Dipole_moment: 5.086
 S          -1.06744276517042   -1.61414861445812    0.20464564988855
O          -1.51971283451514   -0.98316823284801   -1.12719948981783
O          -0.07535182429789   -0.75770818432106    0.80670429367125
O          -2.20425434443888   -1.88301865631103    1.03106707958897
O          -0.40730956070368   -2.92777373238903   -0.22405870129694
H           0.38753120995134   -2.62027787243241   -0.82931343138659
O           2.24874389702610    0.78801188673607   -1.02327991115940
H           2.91647520984832    1.41410568176132   -1.30698085833548
O          -1.04389062318497    2.36122528929568    0.93311596014386
H          -1.68600273216395    3.07245850050859    0.90346538680770
O           1.50673611299410    1.28422255817416    1.45040582306601
H           1.02255944717077    0.44064145855080    1.44418540436324
H           2.08901364279241    0.96662137089491   -0.05692087779821
H           0.80671931992437    1.94878573820591    1.38840253414596
O          -2.24497524499039    0.45114860596423    2.34337890414309
H          -1.47783070631192    1.62619022621612    1.43389817672596
H          -2.36747585612696   -0.39127380513806    1.86284209063425
H          -1.68545891127733    0.23340468943612    3.09226438812230
O          -0.40357701546404    1.25079862082939   -1.44908648884399
H          -0.63909373510874    1.70464838240368   -0.61128380547969
H           0.55697777850696    1.07387211198707   -1.39109158809149
H          -1.07832995094631   -0.06294282428494   -1.29191913177466
N           1.42243650853738   -1.96768008747713   -1.73264355237474
H           2.22766298904641   -2.55572691813478   -1.90399475311189
H           1.74168887701555   -1.08878737570738   -1.32973458989958
H           0.97416110188605   -1.76362880746052   -2.61686849193183
