    26
        -50.45567410  Gyration_radius:  2.46113682322 Dipole_moment: 5.091
 S          -0.54183943674701   -1.48179641954839   -1.13889278623313
O          -0.05744280655862   -1.09537087695346    0.16354583345833
O          -0.62269833702702   -0.22456552616600   -2.02733592338452
O           0.23522326719202   -2.49254892270958   -1.78859228850848
O          -1.99991826428414   -1.93477724690451   -1.02121559455616
H          -2.47407850996001   -1.12757752697212   -0.55592152703875
O          -1.02177200486328    1.74944684833459    1.61747068087092
H          -1.03773225967616    2.52310131944872    2.18277607475809
O           2.64605915660597    0.73252887102779   -0.01284241464226
H           3.42169825723320    1.09571335480089   -0.44361650190014
O           1.01727381030420    0.20383704213506    2.22351889628119
H           0.63880720155563   -0.47568077628510    1.63928043215517
H           1.76760853828244    0.54580840381409    1.71806363329588
H          -0.29476064833918    1.16382650729104    1.96395021974894
O           0.27052079942243    1.77322844360662   -0.78219921956784
H          -0.25660084519010    1.82480709613395    0.04047049559356
H           1.15534160382822    1.44844615679420   -0.50859330087474
H          -0.26398269021350    0.61669238226191   -1.54527368562663
O           2.61480175398211   -1.82119605773105   -0.75965956016122
H           1.81492455809094   -2.08946277129729   -1.25341019177760
H           2.59860133259215   -0.21464339995883   -0.29544270687659
H           2.61433582232042   -2.36462567888716    0.03151903675754
N          -2.97764768763908    0.17561274363304    0.04423756515135
H          -2.28270888230651    0.56624607704781    0.67770430041130
H          -3.85022531767111    0.07228087251660    0.54580864802636
H          -3.11378841093200    0.83066906456776   -0.71535010535966
