    26
        -50.45567417  Gyration_radius:  2.4610681548 Dipole_moment: 5.089
 S          -0.60530675471090   -0.51730988500715    1.77540640746523
O           0.82619959541478    0.02261206793671    1.96510186539751
O          -0.92982062648813   -0.47853856590148    0.37060551939902
O          -0.72675832701873   -1.80849240894162    2.38016545109181
O          -1.47535980478020    0.49718808459618    2.52288897722022
H          -1.29855071333864    1.39539855128702    2.01773805999800
O           0.02273356851067    2.05676057102162   -1.57747364273768
H           0.25765303701009    2.57359273287243   -2.34949699211604
O           1.39437783098386   -1.84846796253718   -1.47559378351364
H           2.16434779796782   -2.39626228284875   -1.63724909016774
O           1.86408897641108    0.52847294364731   -0.27242678482525
H           1.74377415141152   -0.32735176237410   -0.73754892071637
H           1.25079009705176    1.15340426105621   -0.70903113617872
H           1.28253612816294    0.24192240005836    1.06377473185888
O          -0.83337754851909   -0.32673609888898   -2.28521540664666
H          -0.38469221306806    1.21413350324866   -1.91726622919369
H          -0.04267212233099   -0.87771414944427   -2.36673557199011
H          -1.11580660404189   -0.46696055101186   -1.36499013707680
O          -0.07376439359978   -3.26673762872070    0.23117594112883
H           0.84178072781770   -2.34520177821823   -0.82205734503056
H          -0.23831779827935   -2.82586948059720    1.08802574013439
H          -0.94288089711629   -3.39527643890909   -0.15538403771580
N          -0.84057114227575    2.59572343037528    1.20487638617314
H          -1.48878224523478    3.37165071250625    1.24055718063134
H          -0.70172156662066    2.33253407112156    0.23109666574948
H           0.05010085667938    2.89752565367267    1.57905614165826
