    26
        -50.45364680  Gyration_radius:  2.37567345792 Dipole_moment: 2.958
 S           0.76362063182767    0.38050193518089   -1.58021826361241
O           0.10793632925044    1.66363026681811   -1.67805433463825
O           1.47496268021298    0.16271332967662   -0.34020377600454
O          -0.14654698391858   -0.73288729152098   -1.86549757963750
O           1.86338607030600    0.34633930206314   -2.72007051301727
H           1.39814198432291    0.69712981673621   -3.47223894409425
O           2.08306230213514   -2.13086415001140    0.98345659811648
H           2.34357158898081   -1.49294793192212    0.30109901397526
O          -1.47924997238048   -0.11925710928162    1.40319477150208
H          -2.14597084940015    0.02474705610313    0.67860060446717
O          -0.14389973133231    2.14136204221828    0.90497362714230
H           0.71083662333912    2.45449965320918    1.20692019369893
H          -0.08028093687607    2.06446886815021   -0.07005065223468
H          -0.94406357663567    0.70354394618177    1.35307341572031
O           1.48563851332266    0.04040341282141    2.44083824588267
H           1.47537753743658    0.32071897549264    1.51077055145533
H           0.59166570159604    0.15050059428429    2.77343705317300
H           2.05811407660606   -1.59505039530342    1.80085340394482
O          -0.35116519310080   -2.03963835821774    0.27452849223500
H          -0.81117390069285   -1.26543062774363    0.85440993877388
H          -0.27489054839416   -1.61303761205952   -0.65581373858819
H           0.62463319972569   -2.17952673799579    0.60661920861580
N          -2.64165561942803    0.42553366155393   -0.91101691046658
H          -1.87404114745318    0.03521164416208   -1.45433528190542
H          -2.57767173524511    1.43182495390601   -1.00987773913169
H          -3.51033705419673    0.12551074548482   -1.33539735534728
