    26
        -50.45364695  Gyration_radius:  2.37562462864 Dipole_moment: 2.957
 S           1.58391041890853    0.74079437728600   -0.40757891331596
O           0.98753824256885    1.99961275264341   -0.78920619566505
O           1.19584982200813    0.26486961156202    0.90159867637660
O           1.38820876838068   -0.29849475673112   -1.42300075069299
O           3.14737020962439    0.98530576788956   -0.33131738425985
H           3.32156617688667    1.48442061877526   -1.12239497645290
O          -1.97848010076157   -0.46068124889658   -0.20710321182066
H          -1.92264505428975   -0.17205475444969   -1.15784371257678
O           1.05436825818740   -2.25490928496814    1.91233828632320
H           1.61107070669115   -1.47792067589470    1.74973591960428
O          -0.78984502715340   -0.47633271121067    2.70418614708630
H          -0.17298286272530    0.00469486024552    2.12806267571425
H          -1.64461490690956   -0.46369678136992    2.26689370164851
H           0.34799106940335   -1.91283245598764    2.49563806769028
O          -0.06288440719542   -2.05532446207057   -0.35684663208239
H           0.58541182529964   -1.42946590359791   -0.84834688788799
H           0.36938536961228   -2.24614517181634    0.56976694791461
H          -0.92900098058377   -1.44050755939496   -0.21928677363793
O          -1.13929934242881    1.88148437093613    0.76816675263067
H          -0.84672458043391    2.13555143233993    1.64548097028045
H          -0.37587720019075    2.02628391117631    0.17066060410420
H          -1.73527430737276    0.36355972057412    0.26985330688993
N          -1.17171007797375    0.56404210875275   -2.50982791233937
H          -1.38758827401685    0.34925374758169   -3.47521933940761
H          -0.19720284758380    0.32049059081937   -2.34310841199268
H          -1.23854090784676    1.56800190579749   -2.39130096411102
