    26
        -50.45364618  Gyration_radius:  2.37562242366 Dipole_moment: 2.945
 S           1.21900670848232    0.46957275014870    1.23087109491179
O           1.38039351110302   -0.57674388731102    0.24590111242293
O           1.35053185816418    1.80999099536767    0.70933012500158
O          -0.02108297697703    0.28666870743566    1.99112186226700
O           2.39959912555514    0.27110114468662    2.26875588195211
H           2.39017606808742    1.08777290826580    2.75677382792133
O           0.39540845963153   -3.11392769075102    0.15400420166298
H           1.11003603719204   -2.54204134468835    0.47257763030715
O          -1.63257667237929    0.19307445270670   -1.20808084272170
H          -1.93142360585514    0.95796591979346   -0.64621297193222
O           0.63308334926293   -1.76708681717755   -2.15140769274009
H           0.99851481483466   -1.19210278229116   -1.45865106556499
H           0.44218969130980   -3.02025106454457   -0.81855956136640
H          -0.13945762801904   -1.31915630718206   -2.50448150626975
O           0.73139394280130    1.28606617479797   -1.80199324203217
H           0.99159475378034    1.57692163148070   -0.90290860359233
H           1.51675200665459    0.90579714893380   -2.20006354617095
H          -0.76344658421975    0.51221235000816   -1.53879358110894
O          -1.38485726455144   -1.39128733294197    0.70589299700869
H          -0.87266814277533   -0.75790779858865    1.33049302209592
H          -1.52002650275605   -0.79836234529677   -0.17582685741559
H          -0.73422341317517   -2.17368883752075    0.49206680725125
N          -1.73913316990215    2.15592461708179    0.56392618848389
H          -2.50081605534268    2.59630893031737    1.06447367382861
H          -1.15320948135872    2.88835443766532    0.18093953847353
H          -1.16575884956254    1.65482401961039    1.23985151734506
