    26
        -50.45364634  Gyration_radius:  2.37564930481 Dipole_moment: 2.947
 S          -0.74750284436463   -1.25459436305547   -1.04374560125635
O          -1.23599902033135   -0.28674764149226   -1.99805147313730
O           0.66279857385079   -1.14368067134626   -0.74415945318320
O          -1.54444624080526   -1.27509067428389    0.18657912031085
O          -0.93657425448487   -2.68002053528920   -1.70916134980719
H          -1.80989177057481   -2.62371480930389   -2.08253459544584
O           0.16017729193064    1.76881002014044    1.00491451427404
H          -0.82226547173496    1.89021625957247    0.90453589848009
O           2.07831677026205   -1.83727712232355    1.47563555930210
H           1.71674765015227   -2.13610961909102    0.62748056008762
O           2.82967342429695    0.35914716521900    0.13470722486176
H           2.09980779551627   -0.03528403922001   -0.37097772035662
H           2.52270145945627    1.21524831880650    0.44278980921641
H           2.69142141039541   -1.11806141342521    1.22350610943264
O          -0.01016736349787   -0.50408978942300    2.02468772327646
H           0.15186826547207    0.48604203499384    1.64979373992824
H          -0.68469065573740   -0.89368787207549    1.35624161240595
H           0.86238629486851   -1.05772417282588    1.90906552764190
O           0.61036660218135    1.56073194726576   -1.62026419960655
H           1.38574950427380    1.27063619115198   -2.10449975057763
H          -0.10629152889119    0.93104827838930   -1.84525079705461
H           0.45652705355826    1.73213182630994    0.06824038376455
N          -2.36985038745304    1.51681071287222    0.27015636430996
H          -3.24747655466422    1.75184416320961    0.71647500891365
H          -2.31058061515128    0.50240464579249    0.20602402389913
H          -2.40280537852703    1.86101116936517   -0.68218821968544
