    26
        -50.45116928  Gyration_radius:  2.66190304678 Dipole_moment: 3.382
 S           0.08284441706599    0.65935838951283    0.87929225108390
O           0.73447428840371    0.72805916446309    2.15471309588019
O           0.15482158451353    2.00729499123735    0.17202179344313
O           0.89123254121378   -0.25363973768857   -0.05511414561025
O          -1.28679570612693    0.20001189491208    0.92139065503237
O          -1.53637918801307   -2.34905907445818    1.68705115726622
H          -1.59533431418020   -1.42214226307213    1.38217458155583
H          -1.61120631603814   -2.32154380156082    2.64330064431335
O           1.61514767951551   -1.46131872303967    3.36785576564793
H           1.26421120487769   -0.60233922309360    3.05241170238365
H           2.49217148775764   -1.28100928885580    3.71023226841613
O          -1.39775158805846    0.98376152283456   -3.34294262724334
H          -1.54017120291746    1.58707589499819   -4.07406214100849
H          -0.41886329685970    0.96295990568707   -3.17486062431041
O           1.01056091549021   -2.49235931482131    0.99474507875238
H           0.97678939881556   -1.24788781646624    0.34866905407404
H           1.36960492730186   -2.28281636802435    1.88814193577519
H           0.05131769590938   -2.67045293964286    1.15101683546830
O          -2.05328323612785    1.94323952162932   -0.97865564192964
H          -0.74199872188060    2.09552065941719   -0.35523204933062
H          -1.90557010811592    1.56502616489598   -1.88620236511129
H          -2.30829503283105    1.20439793544111   -0.40762592336289
N           1.19691533897896    1.10436359933140   -2.65833608269567
H           1.42923372125526    2.04624338338540   -2.36582230763413
H           1.95273436709239    0.76151485175374   -3.23848080139903
H           1.17358915292428    0.53574065121612   -1.81568214944310
