    26
        -50.45364691  Gyration_radius:  2.37562619866 Dipole_moment: 2.956
 S          -1.26074669158972   -0.85408563874584   -0.95075281094654
O          -0.44091287308032    0.23360325869408   -1.43637583805077
O          -0.58014655332345   -2.12486788455035   -0.86197409731059
O          -1.92609973554342   -0.48990205220184    0.30389857093058
O          -2.41621647440322   -1.03347848695357   -2.01984214793847
H          -2.79761397817053   -1.87143955471282   -1.77977498985479
O          -0.59616240438596    2.91370878886532   -1.00459436265065
H          -0.89162963655260    2.16261034631503   -1.54176330206677
O           1.36161114027310    0.29814983883657    1.49222936846920
H           0.93206214550893   -0.44143892540150    2.00090255799638
O          -0.75681897835056    1.57321996350140    1.14351865311087
H          -1.33547570582936    0.77955585299132    0.84535700194794
H           0.20304590100738    1.12372105384413    1.29680938402392
H          -0.70542192604493    2.21412412247700    0.32586193974549
O           1.88420508190622   -1.20466668597262   -0.65475449673481
H           1.01189853003401   -1.64255219560018   -0.74518175192710
H           2.16022493528066   -0.96862756748623   -1.54241865435555
H           1.65447299783599   -0.16118250371194    0.67415080793137
O           1.83911782014123    1.81280883820465   -1.22240493522346
H           2.31908406604524    1.58079179909316   -0.42378039536944
H           1.19942576971317    1.09937310243881   -1.38254176691177
H           0.37211025683966    2.92635606891149   -1.14102936326868
N          -0.12442579857652   -1.77567655035624    2.19585368255754
H          -0.49500978421208   -2.09129035858783    3.08340566531527
H           0.29665654073044   -2.57231873798665    1.73273883306218
H          -0.90723461523968   -1.48649588181263    1.61246244753051
