    26
        -50.45116929  Gyration_radius:  2.66193205836 Dipole_moment: 3.385
 S           0.84812081860715    0.31090941695821    0.63078150533877
O           1.47249129727817   -0.42268294837281   -0.44654885941044
O           1.54896152254272    1.49307520520872    1.03986744067035
O          -0.58384090369508    0.68637418230056    0.22017620064445
O           0.62187382247500   -0.61221122461731    1.82198527766428
O          -1.67358653558979   -3.35990169021707    0.09117112086445
H          -2.05837488038085   -2.57481079445585    0.56280245084250
H          -2.01563314361312   -4.14086183811922    0.52932469753379
O           1.44141147423128    3.72177494601000   -0.39635678226475
H           1.30412269048218    4.45707601809724    0.20321573423658
H           1.61531279362328    2.93942512737818    0.16779096926270
O           1.50318850774659    0.90557325981324   -2.76626536063588
H           1.54961140286552    0.30335069979921   -1.99764592348971
H           2.31800053589185    1.41237028554402   -2.75892659360986
O          -0.43344993789612    2.31010519500824   -1.64228105063651
H           0.15313477892981    3.00536306754131   -1.26333823416987
H           0.14701997454691    1.81375858907957   -2.26920486519283
H          -0.58429019821233    1.39267452571856   -0.59226874082603
O           0.83959590584916   -2.79768193107025    0.64687017134051
H           1.22433075014416   -2.33145521408952   -0.10915622571258
H           0.69426743220195   -1.58216107592255    1.44270276585110
H          -0.07317662637182   -3.08131107866212    0.37331212659303
N          -2.45177369437019   -1.20842178586764    1.49882524118441
H          -1.92378219367594   -0.48977810967575    1.01022375444664
H          -2.07237329226938   -1.25902446387799    2.43698731884023
H          -3.41116231134174   -0.89152837351071    1.56595586064067
