    26
        -50.45364695  Gyration_radius:  2.37562577475 Dipole_moment: 2.957
 S           0.05333130181582   -1.64396186736380   -0.71998205795522
O          -0.87473492127564   -2.18396969176712    0.24593232689382
O          -0.40820070308380   -0.45095879804628   -1.39443597198078
O           1.39100004679316   -1.44294223072816   -0.15461931844239
O           0.21956658086302   -2.74132133978866   -1.85058849360267
H           0.31739988725676   -3.54537838356785   -1.35140462907578
O           0.96816134612971    1.60744513927226   -2.51619628031949
H           0.59134306487704    0.72257697844814   -2.63922510258700
O          -0.02908590264412    1.41837959258874    1.46878627235179
H           0.29288022214422    0.72836724296101    2.10955575564959
O           1.80030376306107    1.03905515181247   -0.18775466102620
H           1.01730249838551    1.30755598957503    0.49192962033125
H           1.75106664976206    0.01389566897184   -0.19897167266408
H           1.54032946956821    1.34942696230517   -1.14586182066461
O          -2.20350056090769    0.03809824507107    0.75573189382785
H          -0.88286384265369    1.03474541320836    1.16909679222362
H          -2.82168990174603    0.15602784341511    0.03201608639791
H          -1.78544874007222   -0.83813555605533    0.62080126457026
O          -1.34864096141112    2.16559887851096   -1.28623692588671
H          -1.24460449694013    1.20026470695829   -1.25265932561938
H          -1.33246071999250    2.47794869893680   -0.37839596984946
H           0.19024866493267    2.16045604185082   -2.30363892154995
N           0.66692481116858   -0.86736552049227    2.60625368505763
H           1.01438760681306   -1.26224569617186    1.73439324218143
H          -0.20626868696569   -1.34105331409194    2.80528615398453
H           1.32325354420971   -1.10251013584790    3.34018803773789
