    26
        -50.45364699  Gyration_radius:  2.37568123602 Dipole_moment: 2.959
 S           1.67870263997224    0.27718196573868    0.57472486354136
O           1.30177062486432    0.18830655289510    1.96610677091335
O           1.24764644563804   -0.83949527395381   -0.23656703560582
O           1.27765952042238    1.55104143263439   -0.03025386268255
O           3.26228468978937    0.25522232682482    0.53231575027441
H           3.49994896532580    0.86038741662024    1.22696883781178
O           0.69366663939339   -1.00181853106946   -2.89207936960022
H           1.37079404056049   -1.05024304286101   -2.19967091092670
O          -2.03360198740646    0.18229021846367   -0.05065821145886
H          -1.95180550894987    0.99261888904651    0.52120619681825
O          -0.77279792775640   -1.41718701038008    1.67930953442532
H          -0.41833006043793   -2.30323236980974    1.58402281413404
H          -0.01133403176039   -0.83720875883004    1.89022073785063
H          -1.63797097231226   -0.51137393038489    0.52233683534947
O          -0.79205939862808   -2.46645097199599   -1.20628531436336
H          -1.64232858554920   -2.12768796053132   -0.91598852671607
H           0.07289372502650   -1.71949894733325   -2.65644619851032
H          -0.11535224872173   -2.02604761749829   -0.66603700829357
O          -0.43114168440772    0.98658041980609   -1.78821212028903
H          -1.17273090229553    0.59046320601773   -1.12436889346453
H           0.30377132962039    1.30412111038236   -1.14603023130580
H          -0.01514213044001    0.20750930297838   -2.33747235458743
N          -1.11836632598379    2.09517636076211    1.53243422978537
H          -0.19727306466973    2.09327567834408    1.09842761771647
H          -1.00665712835365    1.65800105270474    2.43956133901773
H          -1.39224665310177    3.05806851151478    1.68243452025767
