    26
        -50.45364686  Gyration_radius:  2.37559284092 Dipole_moment: 2.954
 S          -0.76627071408085    1.12050074560744    1.17532820985176
O          -1.47590028323200    0.22328759606369    0.29070530536319
O          -0.14944002103151    0.47810284957381    2.31234308913369
O           0.17832456447045    1.95597688454700    0.42758394663875
O          -1.85969203027886    2.11060822739946    1.75316670600921
H          -1.40231797735735    2.53294056789325    2.47268667850627
O          -2.02204714861206    0.40471258304530   -2.36589345853922
H          -2.30092975744459    0.62704382920002   -1.46426120348264
O           1.47361700911653   -1.13405114688170   -0.84298958730531
H           2.14049962603195   -0.62512952770890   -0.30792570071860
O           0.07449696151843   -1.94244521668761    1.28531041188665
H           0.01814417866905   -1.08675775147740    1.76001393772806
H          -0.79183949275259   -2.34765039659063    1.35691758191997
H           0.91457899205585   -1.53614873018732   -0.14163043686411
O          -1.49808231912148   -2.02224376846364   -1.35263393438980
H          -2.01647441760354   -0.57312791698339   -2.36958579337522
H          -0.60879581816899   -2.37660869025759   -1.42758872468679
H          -1.49135163046540   -1.40372840721669   -0.60353542077605
O           0.41134026282570    0.89372844191572   -1.84076559913410
H           0.32682133730471    1.43353259359916   -0.97177541542328
H           0.84397838453785   -0.02740585741065   -1.50752358967114
H          -0.56141534320007    0.71540329978916   -2.16342461025208
N           2.63249098580837    0.46683821245265    0.91756950004144
H           2.53749820558584   -0.00659361147834    1.80827615005672
H           1.88038580250699    1.15195214840705    0.87620684333746
H           3.51238066289366    0.96726303181085    0.92342513420260
