    26
        -50.45364702  Gyration_radius:  2.37568576931 Dipole_moment: 2.958
 S           1.03985459413047    0.91089369210561   -1.14650169723495
O           2.25983492619189    0.49690551221087   -0.49366497622924
O           0.15282698031435   -0.17350297808615   -1.50457077485440
O           0.32666013151511    1.94419666724870   -0.38939650521415
O           1.46549219268453    1.58925293613698   -2.51348486675975
H           2.19059739780932    2.14805774351595   -2.25421091775897
O          -2.54557326950156   -0.23543238654909   -1.82006360643388
H          -1.68378028454781   -0.06719811924603   -2.23149341632083
O          -0.64988289256849   -0.72102991123118    1.79662314773329
H          -0.09034670911169   -0.03343869193540    2.24886242771987
O           1.39653140559755   -1.80554390367313    0.46372580744574
H           0.02369222464827   -1.23569302228145    1.29917246323815
H           1.42129227898700   -2.42812552403608   -0.26538256148999
H           1.81449095365328   -0.98156972309024    0.13646800067256
O          -1.84914999679028    0.90924269266135    0.33453760258473
H          -1.02335772768763    1.43505429389394    0.02658071641627
H          -2.24087332105432    0.46426091296389   -0.51994930826027
H          -1.42776535847144    0.15069050865441    0.96277308162437
O          -1.35263432670598   -2.39647143989860   -0.77034813357252
H          -2.49378120090085   -1.17514605373485   -1.55518696419980
H          -0.64316092274604   -1.77409186908814   -1.00056288810117
H          -1.33009309365744   -2.50197780355192    0.18376865487641
N           1.10679194755768    1.18954223449781    2.31297211008538
H           0.96375228382355    1.64371659359932    1.41295433073890
H           2.01242106833158    0.73802031402858    2.26341552776296
H           1.15616071859475    1.90938731493308    3.02296273566564
