    26
        -50.45364693  Gyration_radius:  2.37562623561 Dipole_moment: 2.957
 S          -1.49629504626634    0.89857770092076    0.42116256421953
O          -0.44542461067346    1.38482404345289   -0.44500081341786
O          -2.35708116151793   -0.09390152202526   -0.17877546335314
O          -0.95248084781689    0.45822774257475    1.70950692782319
O          -2.40760311964146    2.15468744578887    0.74033609911165
H          -3.18233393714205    1.75990093335260    1.12659169443536
O           2.00503070405242    2.41143200482321    0.13016726884769
H           1.06011283498935    2.59049264483819    0.00680940573497
O           1.23243456361547   -1.61114421522185   -0.23473519745332
H           0.62182317791261   -2.13431019132245    0.35162164149960
O           1.76184308441805    0.89081081680156   -2.06557878684196
H           0.87046372330596    0.97500991943031   -1.68855282275072
H           2.28674947978817    2.05889628396426   -0.73729296604827
H           1.99613506194106   -0.03919963651289   -2.01872005760309
O           1.53509553410894    0.26009338171800    1.39039601045757
H           1.50895905097178   -0.52363582218752    0.66070251344520
H           1.82581536299503    1.14545187307622    0.92844242440656
H           0.54491112563067    0.37909861821922    1.63280221690400
O          -0.67021606953286   -0.98310204502117   -2.00290777013089
H          -0.68557205847585   -0.34563509231890   -2.71934487983060
H           0.63765317838261   -1.36233405606675   -0.97659728779878
H          -1.37157739592461   -0.70905294786932   -1.37543860615627
N          -0.82527734991151   -2.41002490840116    1.22485263649725
H          -1.54884311132430   -2.64620002054175    0.55619974043812
H          -1.03354201754815   -1.46831699279505    1.55130182554254
H          -0.91078015631951   -3.04064595870855    2.01205166203258
