    26
        -50.45364624  Gyration_radius:  2.37561422751 Dipole_moment: 2.945
 S           1.63842405860892    0.72710434685639    0.09100190131366
O           1.34205266127779   -0.62522058362878   -0.32653026649421
O           1.33445700853446    1.73921879572160   -0.89350805213894
O           1.03296571543302    1.01770187549074    1.39416226225776
O           3.20575923821479    0.77473256629832    0.31850838458653
H           3.38241459059543    1.70806229509446    0.37256703768516
O          -2.03649837103930   -0.05477000226014   -0.11183761150380
H          -2.05659520361034    0.89902353435635    0.17083679999391
O           0.71870317865268   -2.84732656681434    1.11919951847724
H           1.43225629402000   -2.30210959039599    0.75484323540737
O          -0.63718024357617   -0.81647177960947    1.81088375435318
H           0.06680828705774   -0.07115784505455    1.75955634645713
H          -1.28613373810859   -0.58793414207146    0.98999605292712
H          -0.13328586377556   -1.70319814664037    1.60843998918022
O          -0.49179110608974    0.39573135525406   -2.24428326493211
H          -0.01458762086756   -0.21086872880116   -2.81370115856218
H          -1.52125120969401   -0.00747234976022   -0.94782372958594
H           0.18412634968369    0.96595402783344   -1.82156903922053
O          -0.46381973450855   -2.51779231410666   -1.26360644549755
H           0.22167146298705   -3.13487318775316    0.32725275612613
H          -1.34397062729253   -2.13482482587030   -1.29164244676012
H           0.16014077537192   -1.77990875880217   -1.16251133204354
N          -1.35766116108477    2.42658477729366    0.50946799773097
H          -1.76562058235271    3.12421077891507    1.11907701128431
H          -1.14735368568934    2.87143434556602   -0.37618064765485
H          -0.46403045273906    2.14417014285678    0.90740095663755
