    26
        -50.45364678  Gyration_radius:  2.37557469652 Dipole_moment: 2.958
 S          -0.51582294510220    1.56372840763554   -0.71527006046753
O           0.01279989974787    2.33318945162328    0.38681933985831
O           0.42613578818858    0.64218527839018   -1.31064736753578
O          -1.76785398118260    0.88377195339839   -0.36970961658841
O          -0.88368568046883    2.60065465567516   -1.85521768666058
H          -1.32481105666641    3.29407360785974   -1.37582057093628
O           0.03406821466798   -1.69627868440115   -2.64039521986157
H           0.09231440142043   -0.73038342262175   -2.70140821001403
O           0.30386945062990   -1.40391034288151    1.45122463876091
H          -0.32875675072885   -0.90424175012287    2.03473023973937
O           2.19258079146762   -1.49310269499126   -1.06264073822657
H           1.75519523556351   -0.62584351582343   -1.04323553081288
H           2.15325851299703   -1.84348106991720   -0.16953670334830
H           0.91558023384908   -1.95866130127090   -2.30801665460764
O           1.94165097355799    0.67758796178696    1.09459174126051
H           1.00499603654950   -0.73403772790446    1.29116074142445
H           2.66170944176952    0.82151658239666    0.47765916920308
H           1.26915767615616    1.36289011750977    0.89732125123122
O          -1.27835399831780   -1.58176751569233   -0.47232428384845
H          -0.78805965953773   -1.72881820366339   -1.37794576921897
H          -0.55997281193179   -1.60339612839283    0.32168584101195
H          -1.58784767214507   -0.60314045898698   -0.47346349329154
N          -1.30368926024250    0.43517750445196    2.46956622438030
H          -2.09994733196327    0.38938993207669    3.09291778230019
H          -1.63595166069015    0.73493748313664    1.55497632440369
H          -0.68856384765034    1.16795985057102    2.80297860185212
