    26
        -50.45364690  Gyration_radius:  2.3756439632 Dipole_moment: 2.958
 S           0.32394555935597    1.54077494912599   -0.86310345067129
O           0.28092657147843    0.91380932910715   -2.16344078838052
O          -0.82822996088806    1.27591973200170   -0.03029028611707
O           1.56852800648297    1.24890947928549   -0.14531065851504
O           0.32363786404543    3.10504514906072   -1.11465804781335
H           0.95497077689568    3.20554451632111   -1.81934656329283
O          -1.09759412747775    1.22312113681988    2.67391952254667
H          -1.11046208904951    1.76292562393210    1.86855237859973
O           0.14922029192919   -1.99045325968555    0.43167531442224
H           0.98138537639737   -2.02260675908377   -0.11311419735002
O          -2.52111880885055   -0.53520273776680    1.23380885896027
H          -2.05052193074141    0.02632025194155    0.59583203000418
H          -2.18451906810719   -1.42713919826091    1.11910333672248
H          -1.81499526203921    0.57512673399894    2.52701632900757
O          -1.36616833266964   -1.05817703821597   -1.56243138909447
H          -0.51657589268316   -1.70195782561631   -0.23119585947472
H          -2.24943497533285   -0.68450358751437   -1.56819590165624
H          -0.76697672068385   -0.35369286154873   -1.88715979472060
O           0.91336305403389   -0.10087074812923    1.87411593009506
H           0.12067580133957    0.41561614447125    2.30642075980351
H           0.53104884453140   -0.94890461759532    1.34349136485154
H           1.26540744199218    0.50022229819861    1.12029930374760
N           2.13374401800543   -1.39912632272148   -1.21624746394488
H           2.13056017342673   -0.41384267859948   -0.95933572524564
H           1.73214988699929   -1.45233599627071   -2.14490183006825
H           3.09703352156553   -1.70452168319235   -1.27550318236498
