    26
        -50.44721161  Gyration_radius:  2.51036466576 Dipole_moment: 3.934
 S           1.23809550532173   -1.20960520603738   -1.23585743270185
O           0.25324658602458   -0.24169838954435   -1.69456783250686
O           2.33054917734486   -0.52769786777106   -0.51773164146137
O           0.67288221460622   -2.30198126960827   -0.49725884481057
O           1.92677969929108   -1.80114239114287   -2.52799584219810
H           2.39267360313898   -1.03622937804943   -2.84852354958522
O           1.57668762256467    2.87920293151923    0.87019305199852
H           1.29324316178077    3.56929673965590    1.47177127974785
O          -0.67401652192001    0.15374375455524    2.05948383432805
H          -0.92107276785434    0.05412593057229    2.98012252987152
O           1.83105641356318    0.46963855995312    1.66040151767241
H           0.84234893260554    0.27119209421017    1.84714588786458
H           2.08555601262850   -0.02827581044275    0.72458017500982
H           1.86349806595247    1.46479002654176    1.41411303944364
O          -1.57468254525200   -1.86898756703592    0.84935913317134
H          -2.11672809092252   -1.50574558778023    0.10636975692908
H          -0.76943460814024   -2.20938305101962    0.40930583033085
H          -1.04992528053357   -0.68170478325061    1.58268020748823
O          -0.54783999368094    1.82801843882492   -0.21469323802731
H          -0.25534464703081    1.14159393583362   -0.84969063013877
H          -0.89282437644808    1.33898692616271    0.54470007372695
H           0.77651655155877    2.61819730158636    0.33361700155360
N          -2.58225974071065   -0.71325606774265   -1.36778413690693
H          -3.04017513223268    0.18975882876290   -1.36331480157022
H          -3.03884046657459   -1.28754410283980   -2.06475058631988
H          -1.61998938508000   -0.56529397591201   -1.67167479290878
