    26
        -50.45364609  Gyration_radius:  2.37566790944 Dipole_moment: 2.943
 S           1.26444325603760    1.25924836711891    0.19186589150677
O           1.18473731301459    0.30724766112161   -0.89367335897810
O           0.31442910270262    2.34400185923543    0.10957666425516
O           1.22206308520448    0.57868230290459    1.48968652293802
O           2.70474894436990    1.91155423107913    0.08905295431212
H           2.63485387656401    2.66681778769618    0.66342544742048
O           1.84900138899036   -2.33215697884473   -1.01197467517449
H           2.16886366425619   -1.42172720940575   -1.10053747760649
O          -1.79450514593757   -0.92942466854448    0.27848077940950
H          -1.94203674739102   -0.35907101118025    1.08029353258111
O           0.43849500553838   -1.76497443865805    1.02053512954109
H           1.02081241154801   -2.10009106909900    0.22704219973734
H           0.82928248541157   -0.85687345779001    1.29686643400142
H          -0.53393300551260   -1.50428278532121    0.65483762518489
O          -0.27947545622781   -1.50027004606534   -2.41245279166712
H           1.15568971183098   -2.40027032977273   -1.69876915840754
H          -1.15268805144440   -1.60799472384629   -2.02772662038336
H           0.10958296056555   -0.70725784486157   -2.00769113958737
O          -1.48997486898055    1.13470206445110   -1.38944486730518
H          -1.16059364789278    1.16959286935651   -2.28956629340426
H          -1.71929314838823   -0.25845030856608   -0.43623655728728
H          -0.87438280294179    1.67372473801804   -0.84976394175893
N          -1.59449330134632    0.94728013622183    2.13379349824122
H          -1.86908527337313    0.99091289705211    3.10713870028944
H          -1.90930697074221    1.79815444469182    1.68276619368593
H          -0.57723479583507    0.96092551304130    2.09247529846065
