    26
        -50.45364688  Gyration_radius:  2.37558812061 Dipole_moment: 2.956
 S           1.15383165026931    0.30945704654346   -1.34029791328417
O           1.52424432341921   -1.08220957820474   -1.44996981094955
O          -0.26991298406725    0.55760731671964   -1.38905109893943
O           1.75956743418959    0.95643113189810   -0.17247853408771
O           1.76248778924292    1.04077078906068   -2.60711304704131
H           2.64304550440078    0.68347096061474   -2.65419375180323
O          -1.76386960331300    2.57361221451958   -0.34308922660730
H          -1.23098019022478    2.26508625288004   -1.09203872281155
O          -0.70386239383619   -0.81174457645325    1.73645816352926
H           0.22763871029802   -1.07956286939802    1.96199647235849
O          -0.14465288675347    1.59006236031406    1.34444294307430
H           0.68586849395812    1.43373993884273    0.76188396135435
H          -0.83878697851176    2.06555977434067    0.73286237228754
H          -0.48239517731250    0.59462959547550    1.54941217684974
O          -0.73911813308853   -2.12983351754591   -0.58782190973582
H          -0.85640383986863   -1.29673036610860    0.89529018308218
H          -1.35053328063652   -2.09799335103516   -1.32606981704399
H           0.12937946110911   -1.83893878239021   -0.93688487015451
O          -2.82812178887732    0.11256389156460   -0.38948467942337
H          -2.77678601645376   -0.43308950111933    0.39894978642390
H          -2.49351701805002    1.92417158982815   -0.29787355583186
H          -1.96565907700397    0.04802424233382   -0.83196905574189
N           1.88990341374522   -1.32629647073859    1.63039349015791
H           2.07854416231532   -0.54359949089484    1.00703610724840
H           1.97114321507319   -2.16464002761037    1.06734445490314
H           2.61894519995451   -1.35054862346302    2.33226586221821
