    26
        -50.45364652  Gyration_radius:  2.37558512059 Dipole_moment: 2.947
 S          -0.80855508189117   -0.81699745576480   -1.37890073401902
O          -2.12933115192554   -0.42992349844284   -0.94101554160930
O           0.13290963837090    0.27536152452217   -1.48591733069301
O          -0.25347717502805   -1.91040640083130   -0.57536210079318
O          -0.96959360563779   -1.39305620160738   -2.84602776515224
H          -1.73929271313885   -1.94729811667633   -2.77119942827570
O           2.84727716785266    0.31961560554433   -1.28864503048176
H           2.08548370555383    0.18872238037708   -1.87342320825653
O           0.30242433926120    0.59099562602336    1.92949770241137
H          -0.33244113730208   -0.11660563137167    2.22334045121189
O           1.75012793555972   -0.95768857860914    0.61020302267179
H           2.29708041859659   -0.46271676048418   -0.12259529977164
H           1.22015986622556   -0.23611246594004    1.19823017000196
H           0.99550670246916   -1.44935087223304    0.11788573876786
O          -1.45852635930183    1.79041283680583    0.31790163492522
H          -1.33686058059398    2.45845560240196   -0.35944518556977
H          -1.80896026125315    0.99669859676204   -0.13816599721291
H          -0.26679053914279    1.14656126423209    1.35160965139925
O           1.47858622226446    2.41946325204050   -0.33717395168432
H           1.28258150730938    2.45561221985345    0.60218710474302
H           2.74027316221571    1.23954190360524   -0.97424701402343
H           0.82428333202916    1.82328182371488   -0.73762306881989
N          -1.52438235511575   -1.32318623252633    1.97874222037406
H          -1.70992166813051   -2.08699625252785    2.61658772313721
H          -1.21598205918177   -1.72000377605527    1.09320185626424
H          -2.40257928001296   -0.85438039275812    1.79035436049821
