    26
        -50.45364689  Gyration_radius:  2.37562031183 Dipole_moment: 2.956
 S           0.16621912513992   -1.72141406940002   -0.48310531471991
O           1.60600698037454   -1.64244209470089   -0.56478738528946
O          -0.39074508459348   -1.25473347270103    0.76705022819860
O          -0.49214511433189   -1.07754706500879   -1.62391542546893
O          -0.20864201180146   -3.25792473540797   -0.57514837627991
H           0.34252778845017   -3.56710261274563   -1.28638576230140
O          -2.82768560117192   -0.19963062992920    1.34660263361773
H          -2.29576004444767   -1.00391562327550    1.24465182824912
O           0.36094327783575    2.01002265668657   -0.01739411248678
H           0.79797356192092    1.90046499569353   -0.90471876938087
O           1.96724283066468    0.26869033829403    1.21881720286526
H           1.93823679210138   -0.45491838142510    0.55834995285867
H           0.91787794657811    1.43746309002989    0.55533165196962
H           1.90737683918738   -0.14965765389624    2.07979062476879
O          -1.76305142034882    0.88095374483703   -0.68701340494066
H          -1.33596381163458    0.06920352037823   -1.14752627045556
H          -2.28810204227656    0.50481711302826    0.12830768419051
H          -0.91328407624208    1.42896411285698   -0.33381803796370
O          -0.69738238940660    0.75658492491034    2.66574384355775
H          -0.37182207403379    0.03486618796703    2.10282201339947
H          -0.27766139732759    1.56214214038454    2.35447282177640
H          -2.37789774936022    0.28285626769191    2.06842615907260
N           1.46454421076838    1.00044170056028   -2.20062675359557
H           1.54906787931848    1.33773521756002   -3.15132923219556
H           0.84808578899257    0.19008134704400   -2.20738865825340
H           2.37403981564144    0.66399899061339   -1.90720911119668
