    26
        -50.45364690  Gyration_radius:  2.37562967471 Dipole_moment: 2.956
 S           1.55772405612199   -0.62857537827647   -0.63479316244841
O           1.27227996684500   -0.35426106076042    0.75598130352900
O           0.95444580632010   -1.83811265120218   -1.14362956429500
O           1.25869685138054    0.53743664425998   -1.47175759415412
O           3.12621747085119   -0.83457608221027   -0.72039247813720
H           3.24222197454292   -1.21236183049944   -1.58587936553153
O           1.17121523261535    1.99219397781108    2.12316264386855
H           1.72330789905129    1.26089332672553    1.80588150726936
O          -1.99698744239596    0.42634810600405    0.02039656861444
H          -2.01555869068728    0.27653668549735   -0.96321981081657
O          -1.03694488797940   -2.00395465458427    0.58002308998071
H          -1.70002916559230   -0.44934822522394    0.35353577277065
H          -0.32370419475768   -2.04032968892548   -0.09125184121840
H          -0.66759288105862   -2.37063684112139    1.38561352509098
O          -0.57018699948633    0.06753679142723    2.79914157234894
H           0.00496379282867   -0.30952921302346    2.11299865500734
H           0.52240773906648    1.55282250105750    2.70798871004657
H          -1.45815383901385    0.09103147775273    2.43452449272147
O          -0.12982779536285    2.08261970266473   -0.05299004164360
H           0.48616421121011    1.55196240209310   -0.67943754037512
H          -0.97006667774377    1.42901346058151    0.06447965881110
H           0.37532867259031    2.15363216306943    0.85351345741446
N          -1.36700034225592   -0.23913557812732   -2.46237636492697
H          -1.66595669505093    0.10370451772909   -3.36671199107648
H          -1.40662349006812   -1.25128474637408   -2.48412086757526
H          -0.38634057198235    0.00637418362290   -2.34068035523064
