    26
        -50.45364675  Gyration_radius:  2.37559373674 Dipole_moment: 2.955
 S           0.71576089517601   -1.06118930507794   -1.25939103175964
O           1.38536451411097    0.03606466150146   -1.91789333553923
O           0.97384115917235   -1.15713231213743    0.16020753455779
O          -0.72442228071257   -1.07948036954035   -1.53301610883186
O           1.29630182618818   -2.39162581841307   -1.89405805598922
H           1.30179278583911   -2.19594231224116   -2.82514951634763
O          -0.91620119088206    1.64779576191663    0.78354564860533
H          -1.19959576253990    1.90001069904271   -0.13632560409900
O          -0.52180841751226   -2.20125890149583    2.17519510368911
H           0.13428422404670   -2.36987601442121    1.48145661675486
O           0.94080796265843   -0.01503309702924    2.69760642462449
H           0.52051855905576    0.84742233966542    2.65840461787765
H          -0.07895851652888   -1.55138559947371    2.75633150534195
H           1.14376459279976   -0.27006962830133    1.78245729107039
O          -1.86278867129946   -0.66026106281055    0.67079135686891
H          -1.48150135214926    0.32816395608416    0.82652325042464
H          -1.49054516884843   -0.90537467573336   -0.25386954787242
H          -1.40839838749655   -1.31009628441585    1.34416995241696
O           1.68863691296129    1.59443454548309    0.19001540542548
H           0.06332328732774    1.64909660336071    0.70173277850327
H           2.44170553663707    1.25055398121154    0.67424037967480
H           1.64077447508833    1.08220080956532   -0.64428817370793
N          -1.19384065894056    1.77746586752264   -1.84541953395007
H          -1.08371640334412    0.77229061968135   -1.96463305821282
H          -0.33657781957390    2.19972433607941   -2.18196812038697
H          -1.94852210118813    2.08350120996988   -2.44666578924421
