    26
        -50.45364689  Gyration_radius:  2.37564734817 Dipole_moment: 2.957
 S          -0.61664430316705   -0.93789304103683   -1.40154520087518
O           0.63772368850863   -1.17689323974152   -0.72282819838521
O          -1.78355295332487   -1.39562411756400   -0.68417907478618
O          -0.73115377678297    0.46430669415853   -1.81392480808758
O          -0.54936635494937   -1.78108034221107   -2.74107793087232
H          -1.45082535274797   -1.76654093405412   -3.04510755392703
O           3.01506083307744    0.13335712149200   -0.86056069019277
H           2.44830163678723   -0.55892765710779   -1.23433178899286
O          -0.07068282060247    1.23826117278542    1.62212645726899
H          -0.96884491389533    1.54342361236038    1.32154016042678
O           1.05373522223870    1.71352688434885   -0.55629534804739
H           0.34747042550559    1.27913178988679   -1.16144503279708
H           0.66699210677827    1.53616750193168    0.42635854210678
H           1.92315476052136    1.15705864612821   -0.68499956942345
O          -0.76055852579229   -1.34046992179040    1.74756036972893
H          -0.21822111422417    0.27621264779848    1.75876520780811
H          -1.22315914917574   -1.41266372740003    0.88642393984625
H          -0.23084505406044   -2.13506378820485    1.83626263914150
O           2.26480538180089   -0.86431186686618    1.51296565863845
H           1.83477643569516   -0.28582726054772    2.14734757825213
H           1.58499919617687   -1.13403982792178    0.87355946227370
H           3.15910280402055   -0.16096264968803    0.06074831899756
N          -2.38499731395279    1.47403332408964    0.35995198687231
H          -1.99691518984588    1.16764589665391   -0.53013640147499
H          -2.99783767654234    2.25955040815806    0.18081596384820
H          -2.95251799204995    0.70762266433005    0.70200530260792
