    26
        -50.45364699  Gyration_radius:  2.3756528093 Dipole_moment: 2.958
 S           1.70487951820385   -0.56025227000679    0.06447365604373
O           2.20173444970928    0.74113643646846    0.44579749897554
O           0.62996668789778   -1.05902602432024    0.89318390058528
O           1.34608649195623   -0.62479668048866   -1.35557682557400
O           2.90468763676588   -1.57700502093051    0.25634858500444
H           3.63913138975275   -1.11123741640542   -0.12952929672286
O          -1.38695452337014   -2.79481378558302    0.34003480449451
H          -0.46910042908313   -2.68452123093612    0.63256158180523
O          -1.56507678286251    1.24288393555207   -0.41996024582941
H          -0.97444895136561    1.73497271241769   -1.05193037299117
O          -1.14052756812918   -0.99849898369051   -1.43481751960716
H          -0.11952639007526   -0.91698811468482   -1.50040111491690
H          -1.32410272679965   -1.77753948804787   -0.77069876591412
H          -1.42436746719436   -0.07292552843329   -0.97633122156905
O           0.03929663843072    1.60704864326883    1.68590318021861
H           0.89239462127261    1.37005616239898    1.26549541689104
H          -1.08987933323250    1.35705452007024    0.43277304306306
H           0.04681263737646    1.20424699215066    2.55625172909830
O          -1.90827636786676   -0.74669490765860    1.99140754125682
H          -1.90295720850357   -2.31479145071103    1.01778358803861
H          -0.96256170060397   -0.69315101370959    1.77585001702845
H          -2.31851635997681    0.04658463489448    1.63871434903724
N           0.52585806379519    2.13774939659587   -1.77273440486609
H           0.63096109385887    2.54177809280645   -2.69490560834210
H           0.98780268688261    1.23035469244879   -1.77150493264319
H           1.03668389312646    2.71837568650030   -1.11818860253556
