    26
        -50.45364690  Gyration_radius:  2.37562320867 Dipole_moment: 2.958
 S          -1.63608888650167    0.51178765618655   -0.53374760512044
O          -1.09424025485280    0.69743498496135    0.79408164778200
O          -1.11442612142343    1.42129069396390   -1.52699005931720
O          -1.53098979045793   -0.88939949859326   -0.95213630611490
O          -3.18643274150290    0.81447842497637   -0.41287066399979
H          -3.45879293412031    0.88689726235119   -1.32162992561286
O           1.95335641633257   -0.56805454940579   -0.17932660473337
H           1.78520877172346   -0.76007890065700   -1.14117020747703
O          -0.78320836603127   -1.05103644733403    2.85168255768481
H          -1.37083448086368   -0.42433671063507    2.40206052414658
O           0.07030270938780   -1.98193100578480    0.65131162779423
H           0.93190213050447   -1.40333676490521    0.38705525555280
H          -0.25175943383829   -1.69907589466579    1.59908671693813
H          -0.64300207102040   -1.64113035638791   -0.00339652653024
O           1.17429959297945    1.98319920359343   -0.33979744735451
H           0.34618011194628    1.85359995842297   -0.84789182845711
H           0.97510431592933    2.63044852211926    0.33935456130379
H           1.74595994009669    0.39110220059055   -0.12448587937144
O           1.09657352090616    0.83016708737432    2.50486162245783
H          -0.02433500585811   -0.49817071227660    3.12474851946677
H           1.89714455317918    0.60838572310726    2.02333066451561
H           0.40857648142067    1.00241586894968    1.84097409024324
N           0.87132766190892   -0.72444411627769   -2.58948381767052
H           0.98313951625947   -1.37537909010917   -3.35663027531495
H           0.92765709389498    0.21423636548888   -2.96661299344900
H          -0.07262272990469   -0.82906992513418   -2.22237765731493
