    26
        -50.45364688  Gyration_radius:  2.37564461339 Dipole_moment: 2.958
 S           0.62784282759963   -1.61376621665636    0.47516995867713
O           1.33023469198021   -0.65286294877870   -0.34600239591643
O           0.60550886715710   -1.29604328118785    1.88389545701832
O          -0.71230281443013   -1.87864993562983   -0.05712430207228
O           1.42969011711046   -2.97245812149595    0.33042818663185
H           1.07058750035768   -3.50508389114389    1.03228826580317
O           1.02949074703463    0.00884689134004   -2.96485514687103
H           1.45106790698984   -0.58028604353198   -2.32032302786367
O          -1.16915971417451    1.67231727514360    0.08661573475792
H          -1.79460061818354    1.17592074749452    0.68051052168097
O           0.95004662020854    1.31188757042233    1.67418108176150
H           1.88720227132320    1.44986235341043    1.52409572942598
H          -0.33629301556173    1.65368618750201    0.60811845491831
H           0.83827102599099    0.35528075061434    1.85613628120695
O          -1.18077928087779   -0.05052826452080   -1.72062526789218
H          -1.16350434126160    0.76381635488853   -1.02506855903677
H          -0.33414746721907   -0.00162897539946   -2.32293830939823
H          -1.05109729187777   -0.86973249224612   -1.11601914077674
O           1.66783976101725    1.96102921260011   -1.24001369497645
H           1.35822420953028    0.89509570110979   -2.71481596864936
H           0.97088361148505    2.51742315394111   -0.88417043136863
H           1.65558610890997    1.13484050635654   -0.72913198947760
N          -2.27296351216487   -0.13414960037702    1.67467225952520
H          -1.78158904208906   -0.04808798996175    2.55649374850546
H          -1.84258008180369   -0.91452989782162    1.18221521570274
H          -3.23345910699440   -0.38219904599567    1.87626733853676
