    26
        -50.44721162  Gyration_radius:  2.5103568808 Dipole_moment: 3.934
 S          -1.34703069729709    0.94168090732122   -1.34972622461108
O          -0.69892862957196    2.17581201038059   -0.86908772371459
O          -0.34412470139381   -0.05448007408512   -1.69476267208229
O          -2.36219022334518    0.45444702345684   -0.46071878821001
O          -2.04652180921089    1.36589027407023   -2.70049467196397
H          -1.32986866153834    1.80964963982124   -3.14136485216804
O           2.81563323227000    1.85323548030665    0.41336853566870
H           3.55246477303811    1.71442503818312    1.01023945728575
O           0.30200557824101   -0.30153746487791    2.13013676597689
H           0.26581837103164   -0.39187287424087    3.08358237314698
O           1.84545167032643   -0.47880779107350   -0.23149079358364
H           1.11015320801138   -0.33645319522516   -0.86316407691437
H           2.57807314564231    0.96009555822668    0.03634204392002
H           1.41891039601126   -0.71384516846866    0.60376916381904
O          -1.72012405951938   -1.50240287490470    1.21582071002138
H          -2.13261963563384   -0.80380623272307    0.66832688865502
H          -1.36253313578903   -2.14390485340941    0.55370642868565
H          -0.53174799005805   -0.79744704386799    1.77580484609694
O           0.43892426727255    2.11106065746817    1.29645990768766
H          -0.12164494657145    2.17442819457971    0.36365031364193
H           0.31289437895628    1.15993447106206    1.65879746847259
H           1.41602608350064    2.15359531701170    0.98740129880692
N          -0.61986135261163   -2.81275767700817   -0.86720810659826
H           0.30897503001808   -3.21496733410423   -0.84159718699974
H          -0.54818048892564   -1.91036080635821   -1.33706520726329
H          -1.19995379284848   -3.41161116154206   -1.44072590777682
