    26
        -50.45117012  Gyration_radius:  2.66354259827 Dipole_moment: 3.413
 S          -0.82284160460337   -0.59189934964136   -0.41217948126502
O           0.43088785889541    0.20793464255050   -0.79752913939910
O          -1.08325279698216   -1.57883571584214   -1.41943192596614
O          -0.65771426011527   -1.11710962596389    0.92408775671118
O          -1.91224381564545    0.47410851398786   -0.41813712741041
O          -0.37630390325436    3.00923741887523    2.23029714265285
H          -0.79743685671198    3.82200491830486    2.51466980415395
H          -0.20776105928431    3.09976330978669    1.25546926946962
O           1.51110768367863   -2.65688182890033    1.19140701897407
H           0.70059774416147   -2.11297209131586    1.24481318531190
H           1.22454063661573   -3.54236839068757    0.95763128823929
O           0.85652922720285   -3.10600262695931   -2.39286770763132
H           0.76210802345126   -3.13853867085891   -3.34624378211253
H           0.05436499824953   -2.65548828139105   -2.05520795462900
O           2.31440636636703   -1.38804961456893   -0.98359334887354
H           2.25886126350345   -1.83808281046195   -0.10568395311751
H           1.96157812717039   -2.05151510679094   -1.62082760018456
H           1.28895772986594   -0.43470525364862   -0.89156407011308
O          -1.99493699503177    0.93996029200905    2.02758669374295
H          -2.03946809315069    0.75096004275188    0.58033099505328
H          -1.48164395431224    0.13367369879555    2.18048793405290
H          -1.38494592118283    1.70450761569055    2.20546367280271
N          -0.15613663602950    3.08073768652562   -0.44606924763105
H          -1.07878751711874    3.14351705701549   -0.86018236777507
H           0.17379066188829    2.13379456447966   -0.61446391254835
H           0.45574308236874    3.71224960624790   -0.94826314253510
