    26
        -50.45364607  Gyration_radius:  2.37564455172 Dipole_moment: 2.945
 S           0.27774488615730   -1.71663316050960   -0.44396981948754
O           1.28112813554015   -0.67539225886034   -0.44707440958536
O          -0.08086587057236   -2.20041132546740    0.86880966857204
O          -0.89365513614379   -1.31758211348419   -1.22999758929068
O           0.92359512884056   -2.94074781721920   -1.21527480854715
H           0.33675404198005   -3.65812885928290   -1.00037097535597
O          -0.93686079007832    1.60152356685389    0.84786724392243
H          -1.75489555755672    1.04391340224736    0.94683429732055
O           1.77786853780357    1.32505654043007   -2.22751089324485
H           1.94549318876668    0.39922754220948   -1.99534567038379
O           2.16028692637086    1.82819766784767    0.37727657615760
H           1.91131149832912    0.89121872050623    0.31257472713764
H           2.12866326956093    1.82154139563566   -1.46109586186543
H           1.46159417704788    2.26744885147289    0.86821504251179
O          -0.67491888205010    1.16136688068832   -1.59605996455713
H           0.30068905116504    1.30945376364539   -1.92370110356335
H          -0.81104240781089    0.14465705436473   -1.55799897516292
H          -0.74539139436049    1.44970130634039   -0.56690482083112
O           0.61584869369801   -0.06106001780998    2.24818212979270
H          -0.28397099051663    1.10054950292287    1.38587183662677
H           0.34643465912464   -0.90531670579292    1.82949779867624
H           1.56953670315435   -0.09931367420984    2.34249374086709
N          -2.63683507263765   -0.42542444111115    0.92613319410929
H          -3.63909597318856   -0.49408730506326    0.80162420460826
H          -2.39045886202826   -0.94324075659319    1.76140893946154
H          -2.18895795067005   -0.90651775979376    0.14851549216150
