    26
        -50.44721164  Gyration_radius:  2.5103588472 Dipole_moment: 3.934
 S          -0.32120867197740    2.07693438608010   -0.32619617134881
O          -0.52238028580620    1.65284913132111   -1.72398782770769
O          -1.08046036568308    1.22351536705063    0.57514484352492
O           1.06234685125758    2.20651575145392    0.03053412390509
O          -0.97863943153213    3.51086887389958   -0.25234267410565
H          -1.82516713980029    3.34030256125905   -0.65128278866353
O          -1.69085922902331   -1.87320141491839   -2.27281230996895
H          -1.67406800770626   -2.82126329472528   -2.41189961722631
O           1.48892189683500   -1.54217631363938   -0.35267081160064
H           2.25651639302412   -2.08837890705840   -0.52865914307484
O           2.21139320438399    0.19493895916814    1.32880798831299
H           1.95502800277416    1.02438928556100    0.87688580427076
H           1.56457869651284    0.11933604138353    2.07292198606911
H           1.80433571945375   -0.83922933688929    0.33508436673999
O           0.43982138161250   -0.48370112492631   -2.42953952023031
H           0.06470021723465    0.50077889723849   -2.14930792216551
H           0.92444371560953   -0.86507959758133   -1.61008959712620
H          -0.41449351219432   -1.04386804858705   -2.52126345704551
O          -1.26819176981095   -1.41851617888314    0.25903262392643
H          -1.31297852576417   -0.45065391707050    0.40449220284474
H          -1.71284491082231   -1.72719318807264   -1.28566696334514
H          -0.32790273952635   -1.63812968311027    0.30861824843748
N           0.09730342074817    0.17658446321906    3.00117135819783
H          -0.42946762492527    0.64784846183749    2.26588612478926
H           0.09942509011785    0.78155718607145    3.81238029706905
H          -0.41015238497586   -0.66502836006780    3.24475884553120
