    26
        -50.45116914  Gyration_radius:  2.66174270723 Dipole_moment: 3.376
 S           0.46974590800745   -0.55342519094433    0.83045251686565
O           0.93466559701222   -0.35409380342514    2.17213810700377
O          -0.60212013222716    0.49739166249771    0.50336061617515
O           1.50025154710348   -0.50927877094847   -0.18190140599875
O          -0.30359736546668   -1.86226114509401    0.72455547191342
O           2.62772892045432    1.89861311692577   -0.46094007493523
H           3.36265262958629    1.90878365699090    0.15596883077136
H           2.29979755773478    0.97787473662369   -0.47928325138344
O           1.56689079529823    2.06505100375308    3.05995467068836
H           1.43807220190524    1.12387386683690    2.81868123037532
H           1.19209337809757    2.16904097845455    3.93613984617507
O          -1.61702286032686   -1.54390775406119   -3.01535067212934
H          -2.15476651030956   -1.23055382540895   -2.24101731848974
H          -2.14277016717857   -2.20551711687251   -3.46776297013919
O           0.43212038281098    2.73269408728482    0.75188092116676
H           1.22088391860606    2.63386461887360    0.16502130858545
H          -0.20968203410138    1.49585968635219    0.59260470621966
H           0.79936195865457    2.69015315888050    1.66529752855648
O           0.37273474208492   -2.50945157949882   -1.58366179967428
H          -0.09030503642570   -2.23782074174460   -0.22600482668635
H          -0.31902902469362   -2.15945446853837   -2.20604375624255
H           1.07423201714981   -1.84360658519106   -1.54476999112682
N          -2.89841086872492   -0.86688994215410   -0.75367132847762
H          -2.18584400206436   -0.27975313061748   -0.32770436052201
H          -2.99564131316777   -1.68169224761646   -0.15925686606401
H          -3.77204224980638   -0.35549425134740   -0.72868712265195
