    26
        -50.45364693  Gyration_radius:  2.37564309437 Dipole_moment: 2.957
 S          -1.22429776048320    0.00747022038023   -1.31347608979108
O          -0.71241189001584   -1.20595365261816   -1.90629140511065
O          -1.51556637938103   -0.09102764407001    0.09949630658881
O          -0.37167813903407    1.16669440782951   -1.59394553945479
O          -2.61063541254630    0.30636530346417   -2.01970413960417
H          -2.41537742289046    0.15691094998296   -2.93884450849660
O          -1.55075495741203    1.80447439135837    2.04680581455269
H          -2.04583802104423    1.35071566902929    1.34733542168248
O           1.83565540401714   -0.21019135543335    0.86969011910408
H           2.24432187318435   -0.16608993753102   -0.03658299633327
O           0.27006498438577   -2.29602895250767    0.28702205371699
H           1.25818709095683   -1.00186286267878    0.79370299974912
H          -0.47341891257969   -2.68229613867447    0.75377342256625
H          -0.07762384920676   -1.98456056489962   -0.57484614902132
O          -0.68617661608745   -0.65001598454847    2.69664109533744
H           0.25752046401736   -0.82716421222208    2.70402670167124
H          -1.31663000711059    1.08483036537635    2.66590354892909
H          -0.97277254791876   -0.69503577142587    1.76951423725756
O           0.54772703435048    1.91483875050202    0.62505263311726
H          -0.27246457689789    1.95902310443054    1.26315956454734
H           1.10932343373551    1.02775260652053    0.83723777872274
H           0.16904546797123    1.72690381394623   -0.31016714835460
N           2.21451683735821   -0.16234548000390   -1.74899354231060
H           2.05916492095764   -1.11494820610240   -2.05710286552252
H           2.93381356035709    0.24136968950243   -2.33581329175910
H           1.34630541129666    0.34017149049193   -1.92359401173403
