    26
        -50.45364694  Gyration_radius:  2.3756419603 Dipole_moment: 2.957
 S           1.35123587411443   -1.07222534175362    0.49883349876303
O           1.39905123013905    0.37269753109160    0.46842760782546
O           0.60921238866017   -1.62450006301870    1.60803149750942
O           0.90699294087727   -1.60993149280273   -0.79073028160112
O           2.85153317096331   -1.54963727518963    0.67538840592245
H           2.75516683124621   -2.46979566841102    0.89742418166319
O          -1.92519078001062    0.54993201793561   -0.40169477654514
H          -2.17181401265132   -0.41394232897717   -0.42181773941930
O           1.68699277259316    2.10136569841168   -1.60873013794099
H           2.12905145286683    1.54749514062528   -0.94685755478173
O           0.08497346852365    2.82564527503843    0.41678777644319
H           0.47634095371392    1.97225783341737    0.66638473244863
H           1.17465509652149    2.73695737460000   -1.07063859499661
H          -0.86151462972638    2.68425464682180    0.33839507945621
O          -0.94125492739539    0.45783238802425    2.08117270279850
H          -1.58835022229749    0.65416027745393    0.51573484077981
H          -0.40123964828656   -0.35578588850527    1.99684472994525
H          -0.41024642832462    1.08337983219405    2.57771136894095
O          -0.07156654237892    0.32917208997985   -2.05999499355283
H          -0.88370507433663    0.52489346290324   -1.38968734289413
H           0.62861928140968    1.09408106365602   -1.97868730292447
H           0.36825083215579   -0.50209924167400   -1.64888939790326
N          -1.89879464222150   -2.08659385708364   -0.17466914519131
H          -0.90888466628003   -2.15418859260716   -0.40329402500880
H          -2.38489208859484   -2.82712714091683   -0.66462177462022
H          -1.97462262122600   -2.26829774124121    0.81917664490007
