    26
        -50.45364698  Gyration_radius:  2.37559464111 Dipole_moment: 2.958
 S           1.08201160359302   -1.38866441686375    0.35356472065462
O          -0.12401645183341   -1.06284677081968    1.08187902712185
O           0.85750093047337   -1.99516709797988   -0.93778140562103
O           1.97758994283824   -0.23045205545627    0.27642984924039
O           1.83953734822939   -2.46595096390769    1.23423437629309
H           2.50154617384988   -2.79860046342496    0.63728290416963
O          -0.84253493863261    1.50855465872991   -1.08864695207559
H          -0.08144654458271    1.44202660780023   -1.72638364949464
O          -0.61031047710005    0.83875715662350    2.96174912761491
H          -0.30033769676427   -0.06199540941727    2.78072303192613
O          -2.56910474978394    0.25905632177155    1.22415483887793
H          -1.53343459815553    0.83274982623634    2.63939129654868
H          -2.68349792583157    0.81204147787571    0.44754366296100
H          -1.83850045939058   -0.35075497983060    1.02901432064879
O           0.59841781703672    1.76810308159198    0.93402610771021
H           1.25347934187274    1.00688813975900    0.72194716982733
H          -0.09264792111228    1.72198659417894    0.11715435565365
H           0.10960113202931    1.49046844915058    1.80923879254449
O          -1.56784828422277   -1.04834464506190   -1.36753681827708
H          -1.23611973303734    0.60990203040600   -1.14778921862671
H          -0.68284850056832   -1.46283656558337   -1.29195573149041
H          -2.16702937109943   -1.59780264464851   -0.85870072741499
N           1.31588912454157    0.71363042863820   -2.39730350837507
H           1.01529122628314   -0.08425617336668   -2.94455615878341
H           1.75572440194364    0.33681389326311   -1.55984687928338
H           2.02308858933696    1.20669354012591   -2.92783254236047
