    26
        -50.45364690  Gyration_radius:  2.37561477469 Dipole_moment: 2.955
 S          -0.98560875288078   -0.94666691171556   -1.16424578560942
O           0.06765741269290   -1.90678513921992   -1.39828245542213
O          -1.30919004953238   -0.73801239133826    0.22962049370791
O          -0.73647493912448    0.32939769858990   -1.84158769688725
O          -2.29595243393467   -1.54217384155913   -1.82641808073543
H          -1.98323054637359   -1.85533761991964   -2.66869004885760
O          -2.35631649884270    1.41798046996529    1.51371804997815
H          -2.53866845533623    0.60348050985826    1.02045839932184
O           1.65526281658893    0.92256741323329    0.76034855050572
H           2.06906918200324    0.87532150524134   -0.14338652713447
O          -0.52416136693639   -0.05086560483935    2.80813501991312
H           0.39239374177620    0.23527718377345    2.80134985686755
H          -1.86761379381966    1.10482660337132    2.30078523675251
H          -0.68521211504535   -0.49664302235200    1.96008629424298
O           1.26359854191886   -1.71412255659331    0.94593089103044
H           0.88085322261167   -1.87035322847849    0.05716080786083
H           1.51008042850067   -0.02733044035875    0.96714232808213
H           0.74222151398357   -2.23571753860943    1.55909243178490
O          -0.43559808678307    2.04087633328122   -0.02238742634275
H           0.44972324980151    1.61789153041535    0.40694601690575
H          -0.61278090131282    1.42995142175510   -0.82793443896538
H          -1.23286758470641    1.89473573230512    0.62961691983763
N           2.17450136315617    0.35242335584451   -1.77140503710565
H           2.67498852833931    0.84295122342338   -2.50190702310902
H           1.18945628854249    0.32540065533805   -2.02771909192416
H           2.49386921475880   -0.60907334138695   -1.76642769466126
