    26
        -50.45364682  Gyration_radius:  2.37564648161 Dipole_moment: 2.957
 S           1.41442725108548   -0.79603107363512    0.76734223704275
O           1.09138282021451   -2.08806772542406    0.20852181785092
O           1.48143509531845    0.27685764134406   -0.19988414842233
O           0.53821796651510   -0.43873588848596    1.88712507392940
O           2.87164111007751   -0.91853277810501    1.37694263160725
H           2.83863400633949   -1.75048430879844    1.83745104230038
O          -1.93088424201698    0.22623402280310   -0.62394117666786
H          -2.19229163623262   -0.51079905971204   -0.00854793002828
O           1.06834000411082    2.95076685936999    0.07143965261113
H           1.70348781339572    2.22070539650794    0.13111378171636
O          -0.77558321946273    1.57048299529366    1.13504211752779
H          -1.29873391925196    1.08960013756914    0.33399323113463
H          -0.23927599148728    0.80086229236144    1.55185531125158
H          -0.07364300789843    2.22682445877558    0.73672950223449
O           0.29175835184078    1.78280574092059   -2.21368346301431
H          -0.62629345559957    1.51996142802946   -2.31405977405293
H           0.79028795468845    2.93680560324545   -0.86607355612350
H           0.72514190526258    1.09215268492974   -1.68550986987518
O          -0.14786606671242   -1.24620745843213   -1.96359492189704
H           0.30983427497417   -1.65589280253873   -1.19974196866000
H          -1.29390847915495   -0.22437318370234   -1.22156701952337
H           0.53745478514852   -1.00001588150993   -2.58773247043314
N          -1.88942858318937   -1.81678825971722    1.05793593410866
H          -1.61744291677886   -2.61557051755662    0.49716472755848
H          -2.53315740201174   -2.14027685059390    1.76905149697762
H          -1.04353440925219   -1.49228346297093    1.52262772083706
