    26
        -50.45364633  Gyration_radius:  2.37563277133 Dipole_moment: 2.945
 S          -0.13229642004397   -1.65808137515670    0.67466228376616
O          -0.15554721310620   -1.31929463400433   -0.73092662220379
O           1.17644473815584   -1.60436668628793    1.28319107506558
O          -1.12503583935503   -0.87669959028005    1.41842941491951
O          -0.61004568502589   -3.16614149490956    0.76293665334065
H          -0.37448491310915   -3.40975461508557    1.65197591097562
O          -2.13507472276386   -0.28431900150011   -2.28856292733766
H          -1.74151068171627   -1.09076448320421   -1.92255186653111
O           0.45354915577580    1.98861746534277   -0.04377741358458
H           0.52215229878512    1.97338459122817    0.94875031887691
O           2.29428453435708    0.08699526489941   -0.40625720319569
H           1.14750534133019    1.34288100957716   -0.30467947108538
H           1.97664486845286   -0.55768410804491    0.26024816991942
H           2.52527710184445   -0.42256034375523   -1.18537435263409
O          -1.83331622513317    0.98845674251182   -0.11354015137555
H          -2.04105536035547    0.53552844252635   -1.02606470451163
H          -1.65893438212432    0.22482837031260    0.54987822204735
H          -0.88051219750763    1.47414235782224   -0.17325912082330
O           0.38914200538662    0.46590329589504   -2.78966427693301
H          -1.41333104166226    0.10094751015834   -2.82474076186551
H           0.70525035383352    1.29419504303494   -2.42064214982168
H           0.43505715937392   -0.19396712314838   -2.07798819124669
N           0.60512450081620    1.21139258561647    2.48150823108985
H           1.53588671629584    0.82407559777681    2.58243373379356
H          -0.01970091135168    0.42068656450659    2.33609783662457
H           0.35452682884291    1.65159863415993    3.35791735276601
