    26
        -50.45117018  Gyration_radius:  2.66366834417 Dipole_moment: 3.416
 S           0.68816628055975    0.24552264022165    0.81382372450049
O          -0.60824043339608   -0.50996037942492    0.48415039070315
O           1.30533119224479   -0.35146418061098    1.96235936722672
O           1.52114274457410    0.29469375828700   -0.36619297353153
O           0.18228149056310    1.64381328031465    1.14859533853885
O           2.11112630245552   -2.12388500128113   -1.34032836132765
H           2.90671732838538   -2.39672197360879   -0.87830225549855
H           1.96872409224770   -1.18521204102091   -1.10750063351838
O          -1.71336512360049    2.49472031767145   -2.23985506499738
H          -2.17888034639869    2.08235696714212   -1.46515710852564
H          -2.15945212982093    3.32354009263097   -2.42115012729141
O           1.55885086036120   -2.98368257396510    2.18563168098291
H           1.30640898181722   -3.23439182547036    3.07575910089161
H           1.58861782919952   -2.00415351325622    2.17694584771432
O           0.62279285160819    2.73781029912677   -1.04559385560990
H           0.32307282367550    2.20825924515688    0.28177692586857
H           1.17321377017987    1.98079667641083   -1.29240167427481
H          -0.21072447018081    2.67187698010117   -1.58331550269075
O          -0.01192969452947   -2.87236171495884    0.04474805977027
H           0.68888768937826   -2.75819039001120   -0.64237194269110
H           0.48353556247746   -3.11628196756328    0.86067376205010
H          -0.41250951542014   -1.54823645300600    0.28003558243474
N          -2.74619690091838    1.47365273675253    0.02005119447422
H          -2.11094731825054    0.69192928102261    0.15889550189943
H          -3.69110504043482    1.11895134482113    0.10218883985977
H          -2.58551882678056    2.11661840452408    0.78653417304285
