    26
        -50.45364682  Gyration_radius:  2.37560374722 Dipole_moment: 2.956
 S          -0.45188031486401    0.58260110936901   -1.63704421141781
O          -1.74164584805256    1.06191202646054   -1.19793294498284
O           0.66575971307877    1.06567715506413   -0.85688786828857
O          -0.41303786752522   -0.87771410509531   -1.76064877183739
O          -0.23306687242070    1.14916247200018   -3.10030851824714
H          -1.07511737489054    0.99342743062756   -3.51500337267609
O          -0.24099905192146   -0.89669383890537    1.81859258426801
H          -1.06132723554324   -1.33703982689602    1.46748280296601
O           3.11408290387400   -0.01928365056939   -0.39065197049552
H           2.56944147591996    0.53037746479432   -0.97493354976406
O           1.23259524169497   -1.68405664271896   -0.03727430353354
H           2.07468841720921   -1.08534167679077   -0.15800774688877
H           0.68891423239240   -1.35385157835264    0.82415480286790
H           0.60174517509939   -1.44454810732294   -0.81082393745733
O          -1.10264463366736    1.58106325411036    1.30918800809032
H          -1.43125170184266    1.43934997887356    0.39666150779478
H          -0.46801200018999    0.05554221825135    1.73052676475226
H          -0.64325955808685    2.42295424997949    1.30220713413469
O           1.94633980895783    1.35119306665736    1.59671113219988
H           1.46121378018892    0.87146785584825    2.27236631089760
H           3.09577071034889    0.46251420866847    0.46007972920254
H           1.35733283782226    1.42528920840038    0.82770462901954
N          -2.31453244332621   -1.58945908756726    0.32673926665834
H          -2.84183983188377   -2.44838013135388    0.23221855089394
H          -1.81420368759388   -1.42920618095208   -0.54544603308699
H          -2.97506586480418   -0.82695686261672    0.42033000492449
