    26
        -50.44195659  Gyration_radius:  2.44550210231 Dipole_moment: 4.534
 S          -1.29709978022696   -1.40883151981472    0.01788277663761
O          -1.95781627271963   -1.67410303006882    1.27546570537783
O          -1.89555696042012   -0.24703039030980   -0.66620937434885
O           0.13537701852929   -1.28205293849546    0.13594427081727
O          -1.58094205796943   -2.64964553558571   -0.91219221411127
H          -2.51613812872138   -2.79930429796961   -0.81346207399194
O           0.39464456627748    1.46035185553324    2.08717738197063
H           0.10095270158931    2.05024832524765    2.78385599102352
O           1.38618401602857    1.79365833930920   -1.65021392916035
H           1.92240405453997    2.57632789416919   -1.78519326668756
O          -0.71894136553528    1.84536138016040   -0.20972020301135
H          -1.28135029050702    0.92667754936206   -0.43811220357832
H          -0.30868056936523    1.70691474939227    0.70922603067717
H           0.06379384858503    1.87588694282766   -0.87218769350877
O          -0.06558549936117   -0.94450304043859    2.91271593591539
H          -0.86591739053935   -1.23972233951995    2.41804471882094
H           0.64292499140406   -1.50109911116136    2.57851472679461
H           0.20781847130904    0.52819822275363    2.42000023618989
O           2.28775458581369    0.31009747652502    0.28805422985946
H           1.99646335783464    0.78347802129051    1.07705245036533
H           1.64343149715778   -0.41354262605844    0.17669651286212
H           1.87886706000920    1.19971054721533   -1.01560686607297
N           0.00738061710445   -0.85154245897662   -2.87893283390258
H           0.22617836443831   -1.45156558578358   -2.09313773381888
H          -0.96419127603340   -0.58702309831333   -2.77115601088412
H           0.55804445078012   -0.00694534127904   -2.77450656423337
