    26
        -50.44721160  Gyration_radius:  2.51036494392 Dipole_moment: 3.934
 S          -1.50746534056654    1.16232583864476   -0.94844293884767
O          -0.91671909999921    2.26105703437975   -0.16234703045557
O          -0.46327161529957    0.40138106223904   -1.61763296537273
O          -2.41647316436641    0.35150021857188   -0.19044393966083
O          -2.33339259306694    1.88972429674674   -2.08094022125505
H          -1.68515375787998    2.50399874430221   -2.40859290445157
O           2.69738618115300    1.90441625566487    0.79394514257196
H           3.48426300484063    1.66818574413095    1.28736999256894
O           0.47905719311661   -0.86905857281861    1.93247147253204
H           0.51976667978601   -1.23088243810478    2.81899605839315
O           1.85321782659450   -0.22396269891836   -0.45215886957182
H           1.50748738851647   -0.72545579446105    0.29871851765681
H           1.06497201440421    0.02602729426032   -0.97763228642747
H           2.49786057589655    1.13841944676442    0.18584569613440
O           0.37986733676164    1.68325943196629    1.83097391043885
H          -0.25118358333712    1.95970297401783    0.98615960575864
H           0.34978632474642    0.66091791921592    1.90665302093314
H           1.32588342561215    1.90041759624347    1.49940835423684
O          -1.51283333740272   -1.93653941121599    0.80995332196971
H          -2.01399903036020   -1.15092081367271    0.51065520711378
H          -1.15960766046188   -2.32688332133959   -0.02709090083637
H          -0.34050008599171   -1.31636033416271    1.49104737039834
N          -0.47731498314203   -2.49153534512895   -1.61623778366037
H          -0.50592489804918   -1.48985704778617   -1.80608555671490
H          -1.05327228221157   -2.95142949593590   -2.30968786140499
H           0.47756347070772   -2.79844859360431   -1.75490442204841
