    26
        -50.44195665  Gyration_radius:  2.44543287156 Dipole_moment: 4.532
 S           1.52515495777840    1.08782154199747   -0.39635576800435
O           2.00488126868488   -0.15642876461777    0.23420069576675
O           1.93212957872968    1.16415869447452   -1.78091424367021
O           0.10775104336130    1.27539696317230   -0.20212957697099
O           2.25922078427568    2.26281178969995    0.35592870302391
H           3.15999329391604    2.19982012687227    0.05367810676931
O          -1.14098336627222   -1.39853613314320   -1.84035146946131
H          -1.13754791401536   -2.05883517620496   -2.53577400661416
O          -1.32969516269128   -1.39508951733831    2.03591178959305
H          -1.97366072494238   -2.03647471654254    2.33966768172650
O          -2.30845883495253    0.19226830489352    0.22120320680442
H          -1.81579121601410   -0.72648014873263    1.47474686981634
H          -1.51909550331996    0.75924049444009    0.13961297506727
H          -2.30365579474183   -0.35666330669154   -0.57261049679296
O          -0.38410515141674    0.82079708847760   -2.92568278431959
H          -0.86977552310747    1.52929223765019   -2.49490428181658
H           0.54905268497974    0.94726708681677   -2.63316013895619
H          -0.84238867147986   -0.54042610864733   -2.27524654683949
O           0.34714334036789   -1.95128373037355    0.19518246410384
H           1.12475613159776   -1.17251048902331    0.22991082580726
H          -0.25864647786262   -1.78920895151178    1.00713551560072
H          -0.21787740393256   -1.75297478974744   -0.62550021293059
N           0.80659894845765    0.91630843409268    2.74303052036735
H           0.08275413389211    0.21100594363322    2.82097251482973
H           1.65309615282028    0.44153232322274    2.45387559610311
H           0.54914940589399    1.52719078312483    1.97757204099433
