    26
        -50.44721128  Gyration_radius:  2.51034732195 Dipole_moment: 3.939
 S           0.95109731030671   -1.90358567376772   -0.03815791039067
O           0.40932285099822   -1.19250855239651   -1.18613034378609
O           2.08555335827427   -1.15800996124770    0.53765056634706
O          -0.03828881870478   -2.26602146715639    0.93546583472677
O           1.59694632445808   -3.23348779932659   -0.59321837978493
H           2.32704531153306   -2.88342728071996   -1.09248360167241
O           2.27145677541979    2.51094642347002   -0.24519201824081
H           2.13854132678259    3.45795691042271   -0.18021385189575
O          -0.88511529031810    1.40387653979243    1.40219907124166
H          -1.28424593734955    1.88486442089342    2.12874509148493
O           1.61818580842346    0.96070332031453    1.66920281200552
H           1.83379670684532   -0.01356628207963    1.22885775053596
H           2.00527414610135    1.61953722428273    0.98485248221723
H           0.60214369843550    1.09256202315424    1.62465777509341
O          -2.19824117179156   -0.73555473482141    1.14694888138531
H          -2.47865085562964   -0.75426238470216    0.19883517221127
H          -1.49009365938510   -1.40930796855309    1.19694667706033
H          -1.43443239273018    0.53361368966074    1.31478349028280
O           0.10652640543191    1.45695031945015   -1.24453510079214
H           0.25335369136778    0.49250089138172   -1.33464481205535
H          -0.48467719960550    1.55267429348471   -0.48544178646404
H           1.51864286572028    2.15137553366294   -0.79281209800067
N          -2.44218659781682   -0.84729746957088   -1.53529642888435
H          -2.57804614101347   -0.02665116261611   -2.11267216217720
H          -2.95348519541204   -1.61096505213773   -1.95899878923474
H          -1.45042333034302   -1.08291583087509   -1.56934833121390
