    26
        -50.44195667  Gyration_radius:  2.4454107277 Dipole_moment: 4.533
 S          -0.23128874354890   -1.76993103059538   -0.69308281576741
O           0.52463713826003   -2.82508619802288   -0.05768736940228
O          -1.43326199663650   -1.42698011443265    0.09018186800884
O           0.55831893674732   -0.60252593598464   -1.00232715248996
O          -0.75928054873636   -2.35214329629177   -2.05966178254029
H          -1.11415811274041   -3.20350810571207   -1.82311281023035
O          -1.15465528951903    2.55009091854330    0.15322477073552
H          -1.22147726145177    3.42596852264812    0.53625129502916
O           1.45362155070055    0.42370539607523    2.08613213852576
H           1.69106617494248    0.28029280503265    3.00410211443919
O          -1.08291216334514    0.45555494727242    1.60821691373938
H          -1.28263067498096   -0.39867282322259    0.94282245677193
H          -0.09059353580932    0.42283865792812    1.82344452917506
H          -1.22675258946931    1.29983219374317    1.04337720502224
O           1.30971645960714    1.88962006485779   -0.35798047606817
H           1.10487811322298    1.03529724802037   -0.78152189710016
H          -0.21485094936117    2.43436102194443   -0.16556718682476
H           1.65742863569735    1.65888368314344    0.51227216828836
O           2.59696192177228   -1.45223925552535    0.72598861350655
H           2.85422346136863   -1.07520432099259   -0.11964460872745
H           1.90288886395206   -0.31409844566943    1.56801803205096
H           1.87615353693581   -2.08755747447661    0.50428020112872
N          -2.06751276184666    0.45949890203590   -2.12794267186524
H          -1.14383204141473    0.07598127907721   -2.28650207688820
H          -2.55476198787087   -0.20847813798419   -1.54312503737010
H          -1.95192612647243    1.30449949858212   -1.58015641114692
