    26
        -50.44195660  Gyration_radius:  2.44546894068 Dipole_moment: 4.532
 S           1.71038962871068    0.82948224180583   -0.23127263929763
O           2.46422408889472    0.45830755075922   -1.40703979240619
O           0.67310335444286    1.82742319376897   -0.55393620968676
O           1.16453932113842   -0.29951053488125    0.48240691231436
O           2.71764364275263    1.55409490249767    0.74116413329525
H           3.17651300740446    2.16911730130329    0.17731812766078
O          -2.48002368452485    0.22473746362653    1.28823334667196
H          -3.40132915289712   -0.01573629394057    1.39626134926880
O          -0.96894209444885   -1.55921766178493   -1.80946459006345
H          -1.25077791364667   -1.75579144929324   -2.70476397581749
O          -1.51328888795984    0.82888722182676   -0.99428404253479
H          -1.94848448285574    0.69298899582542   -0.07520908247867
H          -0.54541420389037    1.31980402112584   -0.80824282500625
H          -1.29845162983488   -0.09911875183895   -1.34734841831363
O           1.58044372057898   -1.97219224588496   -1.73035216221436
H           1.98898547644810   -1.07473494894014   -1.73846898283351
H           1.78583523995932   -2.32248443953282   -0.85937690258334
H           0.02503279313250   -1.72146516950112   -1.79274233570254
O          -0.94596404778688   -1.86097777622590    1.02826288047293
H          -1.09954735232438   -2.13075667966069    0.11442088380556
H          -0.10319124622558   -1.37057501960522    1.00734438176124
H          -1.94166485980091   -0.61365234941327    1.36187191139219
N           0.09360772655426    1.84173439308588    2.36916168399693
H           0.18687040705434    2.50975809544444    1.61369138607471
H          -0.83178867269134    1.43510849765524    2.29295070097856
H           0.76167982184763    1.10476945178134    2.17941426125170
