    26
        -50.44195662  Gyration_radius:  2.44548157582 Dipole_moment: 4.533
 S          -0.95087376648584   -1.43447190407274   -0.83985246681568
O          -1.29543453367415   -2.56571530761352   -0.00921624113123
O          -1.89385400419103   -0.31775084447151   -0.64077151986577
O           0.42060068893015   -1.01033795599841   -0.69448654666999
O          -1.14058812725426   -1.89717344206389   -2.33491245623046
H          -1.98961299718770   -2.32831834228006   -2.33412934964723
O           0.65168358967833    2.71973308256639   -0.19901985453053
H           0.97940754937914    3.53987493816973    0.17283413527030
O           0.46713044900395   -0.02866554262412    2.53484360515484
H           0.19352844579541   -0.07908397793540    3.45255768092594
O           2.18686423152707    0.69922805734238    0.37694792979220
H           1.95664406339341    0.50643991679958    1.29416785514180
H           1.69682738254595    0.04019653203273   -0.14913296979416
H           1.36636056847634    2.03157564376704   -0.08136464900591
O           0.67672016356761   -2.46197937808418    1.69160954226939
H           1.41001480003290   -2.48660511480518    1.07101745198319
H           0.54259493295505   -0.98188936146429    2.21816143136570
H          -0.12319583293058   -2.61328094375550    1.13514832889196
O          -1.11139080409694    1.31705718290611    0.99823925378846
H          -1.50413770111054    0.60314248986998    0.25762774696168
H          -0.51696890569125    0.78053403164637    1.62336782800385
H          -0.48979628625371    1.95155061264241    0.48482704150517
N          -0.35513579080257    1.07038560171767   -2.78248151372648
H           0.01865134592187    1.79876751883394   -2.18480471349217
H           0.12647323341004    0.21159820347168   -2.54599155201764
H          -1.32251269494022    0.93518831340956   -2.51518598812400
