    26
        -50.44195665  Gyration_radius:  2.44542294295 Dipole_moment: 4.532
 S           1.86613446443889   -0.30119412824696    0.30516900975858
O           1.59185531316289   -0.55209548011492   -1.12229762671347
O           2.69691565156788    0.86810381639863    0.48145367599612
O           0.65352477873356   -0.26844711294782    1.08646614314907
O           2.71055987235642   -1.53510392395053    0.80482283818005
H           3.56119653126311   -1.41030197381030    0.39548127642281
O          -2.35019728275601   -1.14081173393964   -1.01714956614600
H          -3.25309758509899   -1.07719232976680   -1.33188548010256
O          -0.92784261918491    2.39036210561900   -0.26384518495965
H          -0.95487811462621    3.25408598238081   -0.67961426398912
O          -0.52104995962950    0.41631090698809   -1.87667930283085
H          -0.66443243126417    1.21373641253283   -1.26380815565456
H           0.44027015058301   -0.03154134779623   -1.58053933161418
H          -1.24482635146927   -0.26824891849027   -1.63145174257488
O          -1.98810700215046    0.17931077614711    1.19575409676978
H          -1.93858514944489    1.09543865598975    0.89618592199182
H          -2.32748200209910   -0.75740492200406   -0.09482863558957
H          -1.06090333656659   -0.09164608367891    1.33029638570083
O           0.93875866406391    2.48772897627891    1.52011214086917
H           0.65477127241349    1.94447718653459    2.26014869009211
H           1.69739745328035    1.99449849120697    1.12824922814670
H          -0.19604526331356    2.44092858165772    0.42649298235574
N           0.15872687919197   -2.99231238494803   -0.18896256565628
H          -0.76429914616858   -2.68351384132797   -0.47203333224430
H           0.79873511680248   -2.72998867917065   -0.92864594041586
H           0.42290011589786   -2.44517905151869    0.62110875905924
