    26
        -50.44195662  Gyration_radius:  2.44545291946 Dipole_moment: 4.533
 S           1.60144707681035    0.99523412760146    0.33447422715765
O           0.45267418966823    1.89400930314417    0.55471963759881
O           2.29647037844310    0.72053339094794    1.57136498860116
O           1.22065754912315   -0.19428275868227   -0.38802005329077
O           2.60562158069433    1.79568309130497   -0.57999103682316
H           2.95977154708865    2.46294265247895   -0.00025414321581
O          -0.94986740378948   -1.61174928838794    1.77314587091674
H          -1.27834581142760   -1.81805778386742    2.65017457928438
O          -2.38578865653575   -0.04031979822329   -1.47176354122681
H          -3.26933906984431   -0.37069426666849   -1.64066514706532
O          -0.68447035215036   -1.96270577131171   -1.04644216339079
H           0.10384462659023   -1.39271812467668   -0.97652519979655
H          -0.88019073364300   -2.22899323733586   -0.13965052333127
H          -1.76620983064036   -0.82399773352077   -1.48407322766081
O          -1.65579328001302    0.69691727182937    0.85910615801421
H          -0.72777368045436    1.27559735565378    0.73197712298133
H          -2.00549468774575    0.50252081875172   -0.08559951312108
H          -1.38094488000779   -0.19924758021278    1.25077855527272
O           1.62592320956356   -1.77766839812986    1.89145491415824
H           0.05347725336707   -1.67729905962085    1.83336823967585
H           1.92865724350107   -2.12266216028856    1.04715374163185
H           1.94556145995322   -0.84493054618502    1.90633397383477
N           0.09616157498425    1.79811644698886   -2.40236324616982
H          -0.78929090077282    1.30497540442582   -2.38395088366699
H           0.06791045547775    2.48569610805031   -1.65930749625026
H           0.81533116176254    1.13310055593147   -2.14544583412203
