    26
        -50.45116910  Gyration_radius:  2.66171436627 Dipole_moment: 3.379
 S           0.00576670668214   -0.83455847014113    0.72101735879451
O           1.49932358773362   -1.13675889225642    0.73785934362445
O          -0.24896733184909   -0.48251223907068   -0.75253106816945
O          -0.74566779679687   -2.00639316991970    1.06484708932775
O          -0.26935568856855    0.32472050233456    1.53897192450992
O          -2.74632228718541    1.28436892397802    1.23911940661738
H          -3.28057426362345    0.81649320195531    1.88444221409445
H          -1.81687579095910    1.05531781732723    1.43718215971186
O          -3.29644053405749   -2.25253946181757    0.37655974221698
H          -2.38966334874361   -2.23759254555705    0.74807887267455
H          -3.42946379921493   -3.13814946983847    0.03463978388329
O           2.87724724992848    2.30867650184524   -0.69277634834919
H           2.67731889230493    1.53627112451583   -1.28461606780742
H           3.80461388192014    2.51815487353034   -0.81505269829487
O          -2.67659197319875   -0.08080552559050   -1.02328878063377
H          -1.29318884171206   -0.29378529954808   -0.93363478496407
H          -3.06521205474370   -0.90764378474647   -0.65403704225056
H          -2.82782387408430    0.59701981088471   -0.32044901555993
O           2.31621462880237    1.06724409797778    1.56217471815835
H           1.40855127430687    1.28750785325570    1.81627627352320
H           1.95817997023831   -0.26297125179295    1.07820949317597
H           2.53271262052683    1.62184152877110    0.76593026871146
N           2.34795957945894    0.05206701220717   -2.05053221634930
H           2.34898155682374   -0.01542600488690   -3.06088131845988
H           1.39678523644065   -0.11448511000416   -1.73196909037469
H           2.91249241954584   -0.70606203342108   -1.68554022781594
