    26
        -50.44195663  Gyration_radius:  2.44544656839 Dipole_moment: 4.533
 S           0.03828086850527   -1.45433274794436   -1.24517262857616
O          -1.24100159112416   -0.74049690585585   -1.41789858055422
O           0.88542909695670   -1.29967557284754   -2.40569380735258
O           0.68794900980284   -1.09824192166508   -0.00698541414869
O          -0.33078757579855   -2.98442935516942   -1.15572195927300
H          -0.58667193647737   -3.20977784471828   -2.04481038124423
O          -1.47892004172829    1.18590623844157    2.06543545597417
H          -1.67977109545796    1.92050040069569    2.64715263771770
O           1.26407702084854    2.19263283310031   -0.48861295953754
H           1.46443617106598    2.96014808180916   -1.02747524220454
O           2.71539531683249    0.25594993707457   -1.39355010192934
H           2.97108124382767   -0.28446858744258   -0.64120205764569
H           2.09615731957400   -0.31345412117839   -1.90799222052105
H           1.83344167515870    1.44561308490706   -0.85257760954458
O          -1.22363083880896    1.50445363638302   -0.45299249018935
H          -1.44154859900516    1.38230207253771    0.54207646887812
H          -0.24948146581849    1.78916056164651   -0.49811664726498
H          -1.27322220262326    0.50184805440730   -0.90527804346474
O           1.07521692276612    0.70505228689389    1.93943517366905
H          -0.51514830845129    0.95676547308063    2.19530296571161
H           1.00625866096153   -0.08551787545082    1.37245950471198
H           1.39870543550527    1.40236861396433    1.35583747347321
N          -1.98357467355066   -1.88870362123289    1.22976356675059
H          -2.41318917116457   -1.73661620749011    0.32536183391316
H          -1.01076308710727   -2.10363394066548    1.04851809111333
H          -2.00871814467520   -1.00335257328933    1.72273697154312
