    26
        -50.44195666  Gyration_radius:  2.44540902427 Dipole_moment: 4.532
 S           1.37417948352588   -1.09865800446198   -0.75560506811252
O           1.06200458281444   -0.03016683922579   -1.72344562417761
O           2.70583132249399   -0.94403773655440   -0.21584450296121
O           0.35346029565944   -1.21982765922754    0.25700813030783
O           1.37437060624340   -2.44138880373870   -1.58163340921928
H           2.16669329385303   -2.38608577039932   -2.10688339634819
O          -2.54787030424487    1.08124372813209   -0.44544426380393
H          -3.25177959211157    1.69839778502711   -0.24060213436638
O           0.56129225076829    1.79257017906426    1.76517554801371
H           1.03293287457392    2.56882266818274    2.07274947493798
O           2.09978451586679   -0.23342162769818    2.21743446948907
H           1.53447016930586   -0.97410642111271    2.45247964411165
H           2.47291061375450   -0.47676294193536    1.33770643377314
H           1.17164650819415    1.01163114586122    1.94473815777257
O          -1.60047945856398   -0.06860438676742    1.68788195217401
H          -1.04077978313594    0.61671935741209    2.07330456450989
H          -2.35201022113172    0.56430571498144    0.38678240132919
H          -0.98418477191716   -0.66416333197245    1.22235978236428
O          -0.13135307188956    1.85184827201065   -0.72082736540989
H           0.40932840815471    1.02792167457656   -1.21189787349674
H          -1.12177735202787    1.58415755737259   -0.71734537733032
H           0.16732230302202    1.84954553978949    0.25018605703249
N          -1.51680213263593   -1.46471906945443   -2.13741491171762
H          -2.10312843095855   -0.73755390758798   -1.74379860186781
H          -0.81067464681645   -1.00450740732421   -2.69884726565841
H          -1.02538745279773   -1.90315971494810   -1.36821683134793
