    26
        -50.45116904  Gyration_radius:  2.66156522919 Dipole_moment: 3.374
 S          -0.26362951913792    0.45804037146997    0.96835394008657
O           0.89746342136146   -0.34721094391553    1.27179212075729
O          -0.35353530342587    0.65834911286121   -0.55214814875482
O          -1.53263911102261   -0.32747770055383    1.27647424733961
O          -0.29642291593306    1.73624241181381    1.61733117812267
O          -0.96454292723384   -3.44908841634721   -1.12078512838591
H          -1.55976706932212   -4.19671264275762   -1.19573059692627
H          -1.47295696877775   -2.64731391189166   -1.41324630808331
O           3.18604916743256    0.67490000470171    0.34203874879864
H           3.51379449169963    1.24405033460786    1.04164190856112
H           2.43333844917977    0.18080552386430    0.72262994656080
O           1.20358565821269    3.74922029410389    0.75805502582291
H           0.66289356136271    4.54070375621857    0.74610146518289
H           0.66910598856200    3.06122089929928    1.20698098336189
O          -0.54836667002490   -2.61471128226166    1.34325259629277
H           0.33176171087868   -2.21423909774603    1.38720817255967
H          -1.23694590173871   -1.32712383292299    1.33214615577653
H          -0.63957660786691   -3.00510656415630    0.43346950861931
O           1.57662500946913    2.04456548406717   -1.24565200635480
H           0.46484731408987    1.25558955453642   -0.91597356338018
H           1.49240175644977    2.82712928873244   -0.65274228816326
H           2.32231967699845    1.52331640577833   -0.86023569253797
N          -2.36755586245129   -1.21453741156828   -1.62508670059476
H          -1.66422532379870   -0.51948090768030   -1.38811310966438
H          -3.11119787867029   -1.11791482885465   -0.94367652305409
H          -2.74282411630494   -0.97321588140906   -2.53408594194630
