    26
        -50.44195662  Gyration_radius:  2.44546046917 Dipole_moment: 4.533
 S           1.64448687742176   -0.57720760793029    0.79333513605537
O           1.54465300025676   -1.19027137086287   -0.54461342872816
O           2.71865957502884    0.38796249555120    0.84862543276513
O           0.37617786747059   -0.05278430491882    1.23865121198325
O           2.03689094974617   -1.74675053155833    1.77496988365987
H           2.94389297388811   -1.93497269156388    1.55439413910267
O          -2.37673754669345   -0.87868350203977   -1.19965222354277
H          -3.16789152917016   -0.72713899618879   -1.71873580320770
O          -0.20073106793464    2.33262589075942   -1.07833930999406
H           0.07026036005710    3.01262274083931   -1.69782322950137
O          -0.08522560566204   -0.08048380763575   -1.98791796143366
H           0.66174766504731   -0.60671292027698   -1.37349001656233
H          -0.99507257098342   -0.48892701901144   -1.74728900458390
H          -0.10580450894139    0.87802510382041   -1.65198086496851
O          -2.03196643640225    0.95041033534871    0.61874771133276
H          -2.39957200380904   -0.24429435466430   -0.42813816671577
H          -1.24463961390130    0.54565862482729    1.02804126435282
H          -1.69223024020210    1.69841166126383    0.11222534624911
O           1.31557911365812    2.57931290278862    0.99926877521484
H           0.39854424979064    2.43800829845365   -0.27561014280022
H           0.78246370998096    2.36239893864706    1.76879859958486
H           1.96701150658497    1.84193722443036    0.93389231701531
N          -0.61853001172116   -2.86929980162867    0.63094307382544
H          -1.36863523509490   -2.47594239966191    0.07406548055276
H           0.17778718597311   -2.98503217524796    0.01602496566294
H          -0.35111870439033   -2.16887273354227    1.31160681468448
