    26
        -50.44195663  Gyration_radius:  2.44543627658 Dipole_moment: 4.533
 S          -1.17505466871687   -1.50952991948382    0.08687731446982
O          -1.40187796172925   -2.08779245775785    1.39170157883663
O          -1.99869477598514   -0.30232810965242   -0.11367185102840
O           0.21748223400855   -1.26185769699554   -0.19857472304457
O          -1.68832553405171   -2.56161150471178   -0.96911717621674
H          -2.54099041667400   -2.82270605122817   -0.63515938237053
O           0.73859427000802    2.21991568328675   -1.54471166740393
H           1.17720067039508    3.06481177425658   -1.65484197261110
O           0.97023220069536    1.04567659152225    2.14692306823967
H           0.88619971805048    1.45078602671100    3.01204375869887
O           0.87733504047072   -1.50989542168993    2.51619300100487
H          -0.02563151021426   -1.78094090579306    2.22719670257410
H           1.46716058566259   -1.91260053109190    1.87324410341296
H           0.93015544723807    0.05155910987752    2.30436575153620
O           2.25158235192785    0.47962196170244   -0.33932581874818
H           1.63106075757555   -0.26919538886224   -0.41309982287231
H           1.42552399098089    1.56514288553184   -1.23227918327939
H           2.20280496442167    0.75302490130168    0.58498971571122
O          -0.81518523685459    1.76596748725378    0.42733102462719
H          -0.13493519559551    1.48922280096423    1.12929076483042
H          -0.27870330479593    2.00858590791871   -0.41283843476640
H          -1.38689619893033    0.85882227728737    0.17737136974336
N          -0.85790983267765   -0.25218204905237   -2.86604909495684
H          -0.38321442006575   -0.97261030257330   -2.33589361273090
H          -1.75569521473408   -0.11583135673540   -2.41762464310427
H          -0.33221797039947    0.60594430801385   -2.74434076055283
