    26
        -50.44195664  Gyration_radius:  2.44547761096 Dipole_moment: 4.534
 S           0.09506742362540   -1.19424116787887    1.49385656564698
O          -0.30339730822848   -2.56395068411155    1.26239227564721
O           1.46966399483453   -0.94941307231984    1.01788908063355
O          -0.83580508572448   -0.22697933485419    0.96483537019392
O           0.13842918926037   -0.99429079167852    3.05697656376707
H           0.61524056546682   -1.75628380936106    3.37120974052123
O          -0.63516967606194   -0.86312120308035   -2.34438168073983
H          -0.51666245916623   -1.43666669305857   -3.10373642209074
O           0.94440153724020    2.42995377181542   -1.03171725504979
H           1.08016757325408    3.04609786397286   -1.75300743266300
O           1.55162539308194   -0.03858944806693   -1.24808865598993
H           0.70786960059336   -0.39098947259767   -1.69065062439045
H           1.42150781261535    0.97397394824316   -1.14655210697733
H           1.56084310041142   -0.45243692435139   -0.22775648117279
O          -1.48427049419325    1.49735259268878   -0.98367043515063
H          -1.47891177855307    0.84190588999931   -1.69206412737078
H          -1.38367977392561    0.98094962600152   -0.16243260708241
H          -0.03614665893232    2.24624081899331   -0.97633439635167
O          -2.05070017112037   -2.18505739073809   -0.63401449195980
H          -2.62078699662020   -1.55354886668008   -0.18718396993226
H          -1.18537936148025   -1.39019765906872   -1.68557340534603
H          -1.41321577450952   -2.47652386363772    0.05953180309806
N           1.12684590647581    1.79560617720431    2.12606626763578
H           1.15477408139642    2.27140569259504    1.23147063346559
H           0.23856012772033    1.31265079994619    2.18152004068293
H           1.83912923253936    1.07615320001921    2.10141578096926
