    26
        -50.44195662  Gyration_radius:  2.44546700008 Dipole_moment: 4.533
 S           0.75718774945670    1.35594104794369    1.12035377599170
O          -0.11837873967378    2.42978044840593    1.53101029965431
O           0.54704293924512    0.15004006619616    1.94352921748211
O           0.68417387166696    1.06145904882232   -0.29028723602044
O           2.22928015700863    1.83260382623697    1.42233066149038
H           2.17951028487480    2.18023647810737    2.30743404895196
O          -2.51149971573508    0.01424817544965   -0.58012509939127
H          -3.44142899691141    0.01690009342276   -0.34593639918798
O           0.30295184013925   -2.63915315977241   -0.89626892875147
H          -0.03146313096252   -3.43251937834294   -1.31708976017299
O          -1.00953702007636   -1.44020652115763    0.93387940535533
H          -0.30717250490502   -0.75011631379963    1.42664008098754
H          -1.62240825940040   -0.86389823381659    0.36439068153447
H          -0.45167357925475   -2.00000687135649    0.27970751093860
O          -1.72745390256245    2.47550817813748   -0.51887691627225
H          -2.21818008891953    0.97742819729177   -0.55017672148580
H          -1.21103609731462    2.56252592210233    0.31664796808922
H          -1.07636328000902    2.58492724934035   -1.21711417634391
O          -0.26050799317126   -0.49506842558437   -2.25873016935072
H           0.22494653690235    0.12598963970865   -1.68441680822408
H           0.19788465355781   -1.88867252069498   -1.54739675419137
H          -1.19200598323889   -0.34675124113013   -2.05426844054010
N           2.79207291530870   -1.03501154064908    0.38293359722292
H           2.55491661742500   -0.13975429640687   -0.02657427256350
H           2.47702597726528   -0.99874830077896    1.34474501173578
H           2.23211575928547   -1.73768156767650   -0.08634058693257
