    26
        -50.44195660  Gyration_radius:  2.44547599057 Dipole_moment: 4.535
 S          -1.73830461957210   -0.22632343144337    0.77086732407983
O          -0.77385452490650   -0.98194110110206    1.59229545731451
O          -2.28157915676194    0.89648805867925    1.50063064279202
O          -1.18336447760460    0.13473291265024   -0.51117928683514
O          -2.93830505215384   -1.21203207253911    0.49925592899236
H          -3.37602261460480   -1.27605423829358    1.34249189484095
O           1.36184853168033    2.14855614264768    0.41692083282728
H           1.78240350468600    2.79552299490949    0.98628701838675
O           2.24443211311496   -1.36077778366222   -0.98610128851326
H           3.16189654900844   -1.38974804877971   -1.26136995797174
O           1.54265323122466   -0.29676819237903    1.22405130316269
H           1.47418981070536    0.67591667554604    0.93908831780645
H           0.51341429027085   -0.63280637137375    1.42427962513659
H           1.85956308024002   -0.81654266399100    0.39824273831567
O           0.98114747487698    0.67661132533724   -1.99802735935445
H           1.28517988113700    1.41284282707830   -1.45304883612061
H           1.78929265841488   -0.66214694257062   -1.53652218162578
H           0.10342185883720    0.44534452704189   -1.64114217551374
O          -1.11874934102124    2.84305593337283    0.21541116233138
H           0.39679916125087    2.42903385341132    0.34873532237090
H          -1.40455344467726    2.62488938982559   -0.67575109049695
H          -1.61166382500306    2.21472149695755    0.79388931906446
N          -0.60513077532994   -2.85042994181470   -0.72318760440354
H           0.35881176507539   -2.63992359650288   -0.95554301692610
H          -0.66198321418743   -2.90229354174952    0.28662878783424
H          -1.16154287470601   -2.04992821125243   -0.99720287749145
