    26
        -50.44195662  Gyration_radius:  2.44548591246 Dipole_moment: 4.533
 S          -0.00496739259233   -1.60876818572978   -1.03881555987527
O           0.85453030296799   -0.62590463689231   -1.72525261795212
O           0.76966439251054   -2.71803616893954   -0.53092805556719
O          -0.84056109382717   -0.98576000380297   -0.04098845017052
O          -0.95987144030011   -2.19476285804565   -2.14786534316548
H          -0.38660135621885   -2.74080074276335   -2.67694705029331
O          -0.45949993079422    2.76449441792271   -0.08766468801934
H          -0.38234618474058    3.64616708007140    0.27979537983502
O           1.47572758589506    0.21122811450812    2.10288036488798
H           2.31829242426273    0.18512567955962    2.56008551858521
O           1.55615446500277    1.21168424363055   -0.27543143810962
H           0.78764760760226    1.89105030515422   -0.29392333721165
H           1.55738805304226    0.80878071101944    0.65712264302059
H           1.26780953039607    0.40032615577216   -0.96169845563262
O           0.60383845873434   -2.21981068430313    2.02205490033195
H           1.14848023577464   -0.74100763071839    2.07613786652146
H          -0.35286912789342   -2.18246394063002    2.10439756890351
H           0.76058094897051   -2.52074205787958    1.09618672166462
O          -1.22792974218675    1.02591178388757    1.68930743240859
H          -1.29280978074035    0.26964713330591    1.07688564459121
H          -0.42361857909466    0.86581316465866    2.19813226071477
H          -0.91152006873041    2.19408199120753    0.59684150421327
N          -1.67665096334932    0.81659893075264   -2.35277286881042
H          -1.47593002495027    1.62972378089313   -1.78180304194678
H          -0.81570597899633    0.56470213599362   -2.82279062684472
H          -1.88923234073636    0.05272127136735   -1.72294630208185
