    26
        -50.45116955  Gyration_radius:  2.66228640244 Dipole_moment: 3.404
 S          -0.53834743817484   -0.75524754442443    0.59114498692859
O          -0.51454563103271   -1.36683322032640    1.88785401099548
O           0.08792136668880   -1.52906999952304   -0.45650833247326
O          -1.96773751849061   -0.40755054749943    0.19330369761089
O           0.13364253445477    0.62409499492257    0.66832732467750
O           1.68403072469606   -1.36807537274991    3.37383285365248
H           0.84347421553644   -1.49507371114945    2.88620409663285
H           1.43883680739629   -1.13314266859784    4.27026036503995
O          -1.24100086229526    1.57947663410835   -3.17452101899251
H          -1.31991628032645    2.04123513310421   -2.29850774567731
H          -1.91469497717405    1.95234296976064   -3.74545882613051
O           2.72482574841333   -1.81891963869685   -0.12744623749817
H           2.82924227193616   -2.61020866716877    0.40526540771683
H           1.78155299608830   -1.78377031539759   -0.38157857969047
O          -1.78583876191524   -0.82850240089077   -2.25494005974919
H          -0.95127219180430   -1.29177667210654   -2.09420342893290
H          -2.01421295013563   -0.55249696485736   -0.83955192325366
H          -1.55420362431330    0.03502755026310   -2.68981729783126
O           2.45959521686796    0.28819585176115    1.44615192236909
H           2.77407432213756   -0.38299094357315    0.79272313260067
H           1.15442080320313    0.54296636924266    1.00056344278644
H           2.32740210437751   -0.22308709638376    2.27809088928171
N          -1.59066117615976    2.58518397591213   -0.70827482872662
H          -0.91473926266323    2.01979118670799   -0.20090925116442
H          -2.50573453954191    2.32482651241507   -0.35964507906531
H          -1.42611388779652    3.55360458512966   -0.46235955108761
