    26
        -50.44195668  Gyration_radius:  2.44539628494 Dipole_moment: 4.532
 S          -1.01385852234959   -1.61734623083045    0.14925668449214
O          -0.36114180785094   -2.83874666286301   -0.26389612465645
O          -0.59204021972614   -1.21768433105522    1.50503758353419
O          -0.86791584206872   -0.53833788181955   -0.79753033755384
O          -2.55313481120502   -1.94090842246199    0.25497689802380
H          -2.58140702729787   -2.75942285126981    0.74072561959274
O           0.21226797754573    2.64219725036314    0.91332033843497
H           0.69611435559474    3.46202917030480    1.02336451465158
O           2.47139467899960   -0.05119422146624   -0.73097875254535
H           3.38080796505526   -0.34301555305324   -0.64479862138407
O           0.37979713246916    1.72408426552150   -1.51563699544955
H           1.26381563687370    1.33761588271234   -1.54086009393638
H          -0.22168964651724    0.96756861845312   -1.38482187143112
H           0.18263834111822    2.44186860252926   -0.06506043387644
O           1.25074565950103    0.38707189066144    1.50097418613800
H           0.42400869192267   -0.33873004870456    1.54880164242388
H           1.75136864391665    0.19211894023229    0.63874602896810
H           0.81723318546165    1.30892897637960    1.37935915703732
O           1.23630660964724   -1.87383469961698   -2.08343976255016
H           2.00127616576437   -0.77012778706064   -1.25702394856482
H           0.70223800354935   -2.37108095626804   -1.42019958732638
H           0.58493604461462   -1.42942573017770   -2.63263489109960
N          -2.55296593165507    1.00760076662973    1.21703650387176
H          -2.48150452833336    0.52537942586419    0.32942495751103
H          -2.26540302023387    0.34240362111414    1.92452675091092
H          -1.86388773478856    1.75098797588926    1.21133056478282
