    26
        -50.44195660  Gyration_radius:  2.44550291327 Dipole_moment: 4.533
 S          -0.46661603992618    1.02108747555123   -1.55131825623633
O          -1.61474783075877    1.04835819653175   -0.62557071364421
O           0.13487144201077    2.32890343632426   -1.67882928744464
O           0.47643094990765   -0.01476897293738   -1.20547006487203
O          -1.06178825250014    0.65766060561868   -2.96515304800752
H          -1.52996467650393    1.44516653753273   -3.22470058909010
O           1.48675966584937    1.00838818786278    1.84866146451164
H           1.69774967815442    1.67410603962278    2.50585389501320
O          -0.79715821148219   -2.12310725745341    1.64870857770762
H          -0.74614507758142   -2.62686720089271    2.46230350263932
O          -1.01925080561071    0.41852608230939    1.65910539896646
H          -1.32999285236075    0.71297600296036    0.64460384150202
H          -1.04356838340666   -0.60688149480280    1.68121465120441
H          -0.04190154636558    0.68185936941041    1.74512681893500
O           2.37069084378496    1.89523331411420   -0.41152672900199
H           1.57113316153027    2.20358500754922   -0.89943399413473
H           1.83387586316130    1.36681894106151    0.97364766662707
H           2.68168136128648    1.13708060396134   -0.91347941906257
O           1.55672115394030   -1.59199910446423    0.67492636893353
H           1.23959959381836   -1.16061400099100   -0.14026906931277
H           1.86518701011114   -0.86918407417299    1.23514561997095
H           0.11967067722835   -2.10195993392843    1.25229851833427
N          -1.97417213208566   -1.82250904489811   -1.34008630100883
H          -1.74759858385732   -2.18590715151112   -0.42134115311827
H          -2.55097658598249   -1.00197416497559   -1.20018607622284
H          -1.11049042235574   -1.49397744938743   -1.75423162318259
