    26
        -50.44195666  Gyration_radius:  2.4454296902 Dipole_moment: 4.532
 S          -1.16470593220965   -1.04716858230570    1.10154897013669
O          -1.00329340756421   -1.74861098640772   -0.18602256979824
O          -0.55304899575463   -1.78723910476003    2.18166741380459
O          -0.72553787286389    0.32504283328099    1.02331264918878
O          -2.71459867135399   -1.02585074367505    1.38911515391441
H          -2.91865677206945   -1.92990978690003    1.60762965464114
O           2.55489731217835   -0.07186786076112    0.33447623435313
H           3.39544395507497   -0.53005569106876    0.39078037001900
O           0.25313714705346    1.24755278530634   -2.49776045528695
H           0.77490414986144    1.66167138541253   -3.18667661269935
O           0.84495817081997    2.16398936650575   -0.13539124684251
H           0.41237897927275    1.75878527378396   -1.65425023708177
H           0.16347877092013    1.66029673130375    0.34739296754935
H           1.67581097230713    1.71729458552856    0.06862298300820
O           0.93591748979387   -0.98049395744230   -1.45903467155982
H           0.05569266743390   -1.35968964876703   -0.91701364204631
H           0.62300078483319   -0.14647440092715   -1.96798227942285
H           1.58733485299967   -0.65406664113724   -0.75108471853471
O           1.47297233984094   -0.22387379825993    2.67598528232629
H           0.76819434340687   -0.90838405299440    2.59174498327952
H           2.14316434789537   -0.14029558699259    1.25122184157710
H           0.99526398262631    0.59678113615633    2.82341075339389
N          -2.64989913298542    0.45224562959082   -1.33718281381760
H          -2.57849425373617   -0.55517438098944   -1.41210901254412
H          -2.43751555439837    0.68015368549216   -0.37366703268361
H          -1.91079966338849    0.84534180103001   -1.90873396487048
