    26
        -50.44195659  Gyration_radius:  2.4454721043 Dipole_moment: 4.533
 S          -0.84113189304817    1.68672331273540    0.33805894590973
O          -1.22919157753594    1.96221669843834    1.70259125875709
O           0.59930649891663    1.92902460298974    0.13243157589921
O          -1.23483747121117    0.37588027302488   -0.11865376511317
O          -1.58856794986664    2.74015006435319   -0.56577241616670
H          -1.44295962693239    3.56826586027779   -0.11882934182301
O           1.63551891824964   -1.40623774775323   -1.79123549668264
H           2.20043099424888   -2.14655652294912   -2.01740192626548
O           0.56866832693063   -1.60558094625670    1.93482246636656
H           0.99083886926175   -1.82221052007077    2.76816254426768
O           1.95485886370065   -0.09010318335734    0.37096077882196
H           1.38299972103453    0.84424987931666    0.25972887710638
H           1.42588472192869   -0.67280603033025    1.01332333327850
H           1.91793122263494   -0.56015496026184   -0.54025227280131
O          -1.67887699128548   -0.47213522825841    2.51779374841654
H          -0.30352985229458   -1.16306178896207    2.17584526046010
H          -1.53458502608971    0.48937724153353    2.35317798775585
H          -2.31484423501403   -0.73840597696990    1.84839061074848
O          -0.56129772164066   -2.16979907312348   -0.62423099309026
H           0.75403526650252   -1.77942260033670   -1.50510111797196
H          -0.27160656654111   -2.36851412805015    0.27469648515725
H          -0.96521033986074   -1.28383067149086   -0.56809160233161
N           0.07658916133551    1.25992567365060   -2.72421657492380
H           0.60230847898195    1.94302163563484   -2.19268356928429
H           0.62218392288434    0.40567373640822   -2.73107813414145
H          -0.76491569528415    1.07431039981608   -2.19243668234859
