    26
        -50.44195659  Gyration_radius:  2.44546711779 Dipole_moment: 4.533
 S          -0.67278115923291    0.08797083251163   -1.79062563958076
O          -0.61801834639363   -1.12760528644988   -2.57024612861327
O          -1.82578281350308    0.08176850686598   -0.87062381208867
O           0.56008441687525    0.38663092852469   -1.10304095920874
O          -0.93803367863343    1.26444597224589   -2.80594585285126
H          -1.64781595363755    0.93942169062148   -3.35119955849036
O           0.78841964269934   -2.23773355458537    1.00783311455850
H           0.65847126913142   -3.15475073771432    1.25645451271866
O          -0.06560799166530    1.23455434619367    2.51640635186321
H           0.09745018338960    1.23825417991842    3.46073060106857
O          -1.25898055882142   -0.70809146617073    1.37129387533688
H          -1.55880307551173   -0.35117519236583    0.37375637142260
H          -0.47462832504588   -1.33683157302689    1.22474194123050
H          -0.88441177159964    0.10766939086292    1.86813722584425
O           1.47465546419576   -2.23751134495106   -1.48317037816954
H           1.05270039033046   -2.25163443197383    0.03592033076884
H           0.67010020933503   -1.94643915147656   -1.97346755872564
H           2.10371956854966   -1.52147802194149   -1.60575706362697
O           1.97922255953398    0.35060350455437    1.17168163900846
H           0.80478741664784    1.04609312402043    2.06358599779861
H           1.92559108406755   -0.60466780905906    1.29838223782232
H           1.60059600064033    0.50846502664899    0.28682848315411
N          -0.96832581815100    2.83896871783880   -0.13311930740212
H          -0.70905795456599    2.61423527556808    0.82068610189784
H          -0.26427241507475    2.43510868902497   -0.73857884438031
H          -1.82927835355890    2.34372838431894   -0.33066367135940
