    26
        -50.44195663  Gyration_radius:  2.44545262131 Dipole_moment: 4.534
 S          -1.80688950135998    0.46832451774923    0.42751510936687
O          -1.56611924416931    0.82326981569038   -0.98383427469579
O          -2.75463895133999   -0.61675693724194    0.54051703064752
O          -0.57389452938130    0.23183802121154    1.13866938586594
O          -2.48710703194428    1.73220863542651    1.07970270924223
H          -3.36274829189509    1.73844586865888    0.70560122172847
O           0.64433712581781   -2.43969947225121   -0.52660643501516
H           0.55815561008209   -3.25778287655587   -1.01947928253905
O           2.41822292482930    0.97523925785362   -1.03040631502075
H           3.29475585936417    0.84602816684492   -1.39555138816167
O           0.39301310995738   -0.28841790600854   -1.93103243720178
H           1.19801180594129    0.28829626839132   -1.66284009357125
H           0.47213466115391   -1.15155437104969   -1.40113915058068
H          -0.49942485593545    0.22911890989052   -1.54624063217758
O          -1.14569769674744   -2.50692411656113    1.33550490483998
H          -0.05930742316719   -2.47747874965830    0.19319141597400
H          -0.77225589183607   -2.07061649484689    2.10598601491790
H          -1.86044289565351   -1.90019634035536    1.02991247608292
O           2.00361967383224   -0.50387932118797    1.06988378396027
H           1.84007780765578   -1.37660902127350    0.69161827762093
H           2.39134065381686    0.51017590011519   -0.14654418758609
H           1.11871975247455   -0.14945259726639    1.27621357811492
N           0.16754826775549    2.99627019907544    0.09063441679497
H          -0.52784808578480    2.87510560593525   -0.63557081719505
H          -0.12166297501628    2.40578570259696    0.86077385652274
H           1.03810012154931    2.61926131481941   -0.26647918793154
