    26
        -50.44195661  Gyration_radius:  2.44544569061 Dipole_moment: 4.533
 S           1.76014472021585   -0.22817320612321   -0.71890795459113
O           2.62462314290070    0.92983727421440   -0.71304808322606
O           1.72252836038678   -0.87416938601833    0.60668477428684
O           0.43489278840357    0.04556392347175   -1.21964483953104
O           2.41915469775444   -1.27910660091779   -1.69188976067109
H           3.33454190712027   -1.28987026896384   -1.42979759940256
O          -2.20902638770765   -1.35056786419449    1.07533134825355
H          -3.03720737282173   -1.36696862329680    1.55718495999425
O          -0.70455554882561    2.22699514985957    1.09019851780811
H          -0.60078129118822    2.93496917528498    1.72864400575341
O          -0.15757627199741   -0.13340873611652    1.98061044651408
H          -0.35124669915367    0.80868089692183    1.65348753674086
H          -0.95731851981690   -0.70780646848629    1.69254788493857
H           0.70538727244183   -0.49104148555048    1.39779715862165
O          -2.14910402460648    0.54483836850262   -0.70640758502023
H          -1.98669559124103    1.33523737072400   -0.17689544897572
H          -1.27978378785581    0.31031459888689   -1.08124912338365
H          -2.32132224098686   -0.71837706826329    0.30984502122412
O           0.82577166498822    2.80571172036814   -0.90967186730136
H          -0.10205702533879    2.46306520895916    0.31824735874960
H           1.60597315156445    2.20935605512952   -0.82025396682485
H           0.38106804923216    2.50304383891231   -1.70596789892439
N          -0.01238827587965   -2.92232083346107   -0.68796313223125
H          -0.84977037629507   -2.69451589576717   -0.16412505109459
H           0.14235308313349   -2.17031765052151   -1.34823635747222
H           0.76239459557636   -2.89096949355241   -0.03652034422897
