    26
        -50.44195659  Gyration_radius:  2.4454956771 Dipole_moment: 4.534
 S          -1.11326687872467    0.06159237995836    1.55692936012877
O           0.16918277939189    0.71115611833177    1.88757220147096
O          -2.19761526933172    1.01682471979837    1.54835028165501
O          -1.02301194257745   -0.71741886479443    0.34573652586561
O          -1.40467759102789   -0.94217102054409    2.73713996121106
H          -1.63179203225833   -0.37527318602190    3.46774509549759
O          -0.32855992614461    1.67931745539432   -1.92777328601030
H          -0.38632239238191    2.56696210860783   -2.28606421403411
O           2.50917002041196   -0.78920859430207   -0.97096600982458
H           3.20272971792528   -0.77387502867329   -1.63208550421734
O           0.15572262100627   -1.13124666315291   -2.02690345959658
H           1.67023040607631   -1.08644426123065   -1.42488847787920
H          -0.33302881807487   -1.17868299866263   -1.18423179388090
H          -0.05008103380974   -0.25902810704831   -2.38516825780445
O          -2.67396718964117    1.09795185163642   -1.01282605937112
H          -2.59711394767282    1.17786167032656   -0.03298232415026
H          -1.24687621516827    1.46629596017473   -1.57288059745833
H          -2.81608302184376    0.16025926354033   -1.16772049595164
O           1.45347969483388    1.35897209032153   -0.08775371857070
H           1.96867212828870    0.51902714020860   -0.37340301219164
H           0.74994396179311    1.51828346518302   -0.80303078216226
H           0.90606387642858    1.08867163537988    0.82859578348417
N           1.33369680678905   -2.02932783030188    1.76554822290626
H           1.40006905779852   -1.20638428534538    2.35201312382924
H           0.37276512040686   -2.07475553633017    1.44941879318565
H           1.91067009750949   -1.85935949246223    0.94962865386776
