    26
        -50.44195665  Gyration_radius:  2.44539661249 Dipole_moment: 4.531
 S          -0.98427174206041   -1.39292391070660   -0.87032291694743
O          -0.55903391635935   -0.42518843307862   -1.89916359620202
O          -0.31382562531253   -2.66239584864342   -1.03607983190710
O          -0.86399884321533   -0.84823583654427    0.46038544412020
O          -2.51693534033372   -1.65369495772597   -1.13150225495711
H          -2.52758866895829   -2.16896512343032   -1.93219402168329
O           2.46638797341448   -0.34159693064974    0.66659844486618
H           3.38132737880736   -0.55278816145719    0.47191361528407
O           0.17218915259967    2.77395863440750    0.36682440990165
H           0.64228409236532    3.56265667259153    0.64124327303183
O           0.33819329333849    0.86945553518857    2.13208073767345
H           1.22865722767468    0.52344899458930    1.99482927480778
H           0.13913287859082    2.15723646029383    1.15215525542287
H          -0.24884714301487    0.24384657419524    1.66817212934142
O           1.25423458878716    1.03246930425284   -1.15165861470832
H           0.44115387604540    0.39407727660490   -1.53066511409957
H           0.80358286823844    1.79719943055228   -0.63714109425244
H           1.75198242527709    0.47902441505150   -0.46026342777311
O           1.25375608721678   -2.59161160622645    1.04496906142248
H           0.73304486423135   -2.74686751479301    0.22206276198076
H           2.00515090291705   -1.22558737377722    0.80955076506803
H           0.59102885681900   -2.44779133756785    1.72581994161299
N          -2.56024055341194    1.41409844472727   -0.67790861364538
H          -1.88481098299247    2.08491130154512   -0.32959985215810
H          -2.25359720650853    1.13778998225045   -1.60275636919898
H          -2.48895645416547    0.58747402834343   -0.09734939700138
