    26
        -50.44195660  Gyration_radius:  2.44548141388 Dipole_moment: 4.535
 S           1.02947067577940   -1.54542863653462   -0.46804747175512
O           2.43773270187300   -1.51561890673007   -0.14515593177269
O           0.21618916019071   -1.88099633098934    0.71595325999488
O           0.56209936997051   -0.34408091453246   -1.11638464447266
O           0.82368678408033   -2.73404460532397   -1.48308560910590
H           1.30350235796746   -3.45599246565252   -1.08900884779620
O           1.06235282872095    1.94975283656159    1.30930748876693
H           1.53112969607814    2.31882830080255    2.06006810227326
O          -2.59527479320870    0.93782979417937    0.49701236355352
H          -3.20672115855529    1.59251320912664    0.83741222453318
O           2.85968887982522    1.05078184853802   -0.31479241048786
H           1.77303448638782    1.60146672867770    0.68620038069197
H           2.84371116773840    0.07122258927176   -0.20258639645979
H           2.53566144140594    1.19635802827593   -1.20767740379809
O          -0.63127384685957    0.08918416723170    1.88695300607813
H           0.05317035082450    0.81297360039547    1.68781922613656
H          -1.48837757280178    0.36029483313168    1.39264138792352
H          -0.26623280143127   -0.82489426762102    1.39336473593632
O          -0.70397345273874    2.01227650027852   -0.93098704808146
H          -0.28521030002804    1.17391233644239   -1.20121383177721
H          -2.00570339847538    1.39633418637356   -0.16663300928441
H          -0.11244407482343    2.38226076884758   -0.26414350993677
N          -2.11485758657078   -1.80113677239282   -1.13887166654850
H          -1.77270371783608   -2.37864969182490   -0.38054726288631
H          -2.55240586658950   -0.98890801169408   -0.71893736716961
H          -1.29625132092377   -1.47623912483237   -1.63865978455817
