    26
        -50.44195661  Gyration_radius:  2.44546112699 Dipole_moment: 4.533
 S          -1.49211080060480    0.12708559402519    1.19350036465284
O          -2.07738452884812   -1.11497385724320    1.64419004107750
O          -0.27105141667304    0.45046537528979    1.95539957020646
O          -1.26314754332701    0.17201606970492   -0.23041586630033
O          -2.52783592250865    1.26522144606562    1.53610690417301
H          -2.77854762394409    1.08216266395165    2.43631060240652
O           1.01421249990909   -2.28992261256196   -0.60973905883352
H           1.41395266811035   -3.13266280431883   -0.38694460086135
O           2.21991845214493    1.37619193391770   -1.01854346154103
H           3.05887631144375    1.40251257039877   -1.48094992918691
O           1.77469389804437   -0.30204093513780    0.85089676502814
H           1.48226606807469   -1.10553947091898    0.30229227716569
H           2.01539511192700    0.43353853933473    0.17746310273478
H           0.87836164674032    0.04941702839298    1.38503660811224
O           0.44771049574083   -0.04876633786850   -2.28333511559820
H           1.55240222254005    0.95941416597477   -1.63412314066152
H           0.71483190648511   -0.95442771222415   -2.08356084711394
H          -0.29088304933880    0.13583296027477   -1.67374255254451
O          -1.54245080450174   -2.61254291453119   -0.42084299519496
H           0.01965310649690   -2.42828283626612   -0.53000397701365
H          -1.79761234494685   -2.17307684797551    0.42421359007483
H          -1.94927697955858   -2.07406157047662   -1.10492934908024
N          -0.21639403624360    2.97179305687918    0.36816686593147
H           0.63237013866177    2.75491046789006   -0.14181557172071
H          -0.94834011683439    2.37728835891912   -0.00095719190491
H          -0.06960935898791    2.67844767850179    1.32632696599178
