    26
        -50.44195694  Gyration_radius:  2.4451813078 Dipole_moment: 4.533
 S           0.14578411386128   -1.65142211813980   -0.95754963110009
O           0.69091659945726   -1.58552100501650   -2.29429728714291
O           0.91662627818495   -0.91527305091621    0.01496719778489
O          -1.27636441651223   -1.26013572855044   -0.94027885253830
O           0.17984300054484   -3.16796584232742   -0.52843430396124
H          -0.19324269579113   -3.62564489861032   -1.27543775122017
O           0.58493031940964    2.23983605305678   -1.13257438969390
H           0.48900147014417    2.89757362337156   -1.82381024401670
O          -1.29682537314669    1.28782680528390    2.12518109002564
H          -1.55304077183164    2.07685917059038    2.60488553747613
O           2.25670370137889    0.47924568637971   -2.01642039224121
H           2.77346520810614    0.17421040267317   -1.26587943674504
H           1.70419250180910   -0.29785721114971   -2.26806585885160
H           1.23617759969832    1.55938201674992   -1.48976934348302
O           1.22528035093359    1.30530361213205    1.48581623614254
H           1.24097610428927    0.41331016271267    1.09163029036917
H           1.25396046769286    1.90984378939160    0.73400772556750
H          -0.29967034289753    1.28720041781463    2.06185859327399
O          -1.61160238023859    1.09923584968807   -0.39959818181555
H          -0.76087001515203    1.55345872295102   -0.71919303566559
H          -1.50593083766218    0.03282116548225   -0.65219774530397
H          -1.59944182573807    1.15421568345913    0.62484098858082
N          -1.19652831086164   -1.93237056164666    1.96133463418320
H          -1.33706361387296   -0.98484610047347    2.29296263302801
H          -1.81395679656121   -2.06355845443293    1.16936462858517
H          -0.25332032524332   -1.98572820047485    1.59665689875932
