    26
        -50.46489360  Gyration_radius:  2.55390381846 Dipole_moment: 4.634
 S          -0.30284593739298   -0.68120030859651    0.35387964819041
O           1.12051080496752   -0.56799373601372   -0.03852784172050
O          -0.92271374491715    0.64406569256883    0.36896764311522
O          -0.98582242297036   -1.57940100586794   -0.55530500773561
O          -0.36078877786954   -1.27987369658860    1.75938667677812
O          -2.89314794838920   -0.80217721879207   -2.20294560388371
H          -3.74666223182968   -0.86932238920173   -1.77293131572412
H          -2.24256397261992   -1.17815571828887   -1.56711784207187
O           3.09763907585048   -0.60334208644507    1.75963744622521
H           3.28708223825170   -1.53569241318198    1.87756896982285
H           2.45201142742496   -0.54635389969815    1.02611128307801
O           0.18589880402634    2.40942075538254    1.98376781641088
H          -0.53602947001324    2.92006458445373    2.35395924425253
H          -0.21655618082684    1.81415207013389    1.31361612503383
O          -1.27771538448151    1.31928656966022   -2.14854974727894
H          -0.16991520506191    0.38782286257804   -2.50613908624067
H          -2.04898197597467    0.74451263112073   -2.34052828282089
H          -1.18472872625342    1.26568833899301   -1.16911857506851
O           1.01691923446426    0.21087865915971    3.25208853759973
H           0.16957854843072   -0.67946823343140    2.41762628702654
H           1.91029810568315    0.01142915009080    2.90024333097151
H           0.80131059248393    1.11266462154704    2.92513958742213
N           0.56216309062074   -0.43396223209797   -2.53744538728827
H           0.94087227908914   -0.49159058425053   -1.52833983847773
H           1.29498994555238   -0.29213117270012   -3.22548177798616
H           0.04919784176754   -1.29932122053929   -2.69956228962145
