    26
        -50.44195652  Gyration_radius:  2.44505273545 Dipole_moment: 4.535
 S          -0.31746252930863   -0.28653332132118   -1.86600960159741
O           0.74442073216251    0.08381093140330   -2.77362659339006
O           0.13670956771089   -1.05682277096690   -0.73360711001016
O          -1.09982468479012    0.89246176185233   -1.44912146579179
O          -1.31260239583087   -1.19766064794367   -2.68136546310846
H          -1.44856433808607   -0.71848218510101   -3.49297187336852
O           2.15087346847761    1.16392294025136    0.81159605141937
H           2.77086190245305    1.89536161099659    0.82738461576791
O          -1.24142794347249    0.31645447946311    2.49426217921658
H          -1.22925365961459    0.57530375394157    3.41688150125996
O           2.79568181576638   -0.30512311947675   -1.21375865056090
H           2.62604387216517   -1.21888360041232   -0.96955602028573
H           2.12031302540595   -0.10435799326167   -1.90373499588121
H           2.41108447161497    0.60093324297154    0.01783090189233
O           0.82215790876563   -1.13473990922409    1.85736316267775
H           0.54798711120513   -1.31130193077986    0.93816725580884
H           1.53126159555828   -0.48408968140497    1.78467900327789
H          -0.52144742554497   -0.36434085996954    2.36571785086882
O          -0.33378375558990    1.84713369246023    0.66620827712762
H          -0.70776133591342    1.45345126978957   -0.29089043355828
H          -0.79391159190037    1.29958725795023    1.40192439200673
H           0.65267544224069    1.60699262844973    0.70754967344003
N          -2.81212845106963   -1.04744091889105    0.02575309849610
H          -2.01505650171951   -1.55611141196595   -0.33680168217025
H          -2.56486302773030   -0.72370624077652    0.95396047579555
H          -2.91198327295621   -0.22581895803106   -0.55783454933154
