    26
        -50.44195648  Gyration_radius:  2.44508370113 Dipole_moment: 4.530
 S          -0.98745703811326   -1.63728237818393    0.09898514932359
O          -0.18536725722023   -0.93493199186293   -0.87324023896743
O          -0.31489130383015   -2.77247462358976    0.68848814012153
O          -1.51201734185838   -0.72892413846770    1.13611518366872
O          -2.24985923294650   -2.20213106291383   -0.65770041373909
H          -2.65084552697597   -2.79083718667474   -0.02566721405757
O           2.34634344844567    0.19476040483905    1.04779301572671
H           2.95973073484241    0.13546085992766    1.78254504774054
O          -0.23225061691194    2.78141422637573   -0.26243958509024
H           0.12566003236715    3.66837043948540   -0.20254928493258
O           2.14552034793185   -2.18491712191940    0.06132421482660
H           1.27409446412027   -2.52305418163605    0.37563448418537
H           2.03925905183982   -2.09244353295939   -0.88922511283060
H           2.27507358180502   -0.73788771932193    0.67401084284224
O           0.01049794536582    1.11199357178671    1.65152101146921
H          -0.70246080141593    0.29698632701742    1.45429150840873
H           0.93319400680183    0.73955212987921    1.44580182454269
H          -0.17272939726136    1.83246955218767    0.94440033424709
O           1.39482778781214    1.14762284658631   -1.46816179789281
H           0.79679048971497    0.37723745242331   -1.45780418978532
H           0.36236446007745    2.26006996726860   -0.87315607866100
H           2.05498142343806    0.95905091552026   -0.78985967262317
N          -2.65277908371936    0.83224597516931   -1.12983448053641
H          -2.06942927995549    1.65108194017973   -1.00067603132239
H          -2.06720937242255    0.10559452763542   -1.52294638222444
H          -2.92104152192970    0.51097282125017   -0.20765027443856
