    26
        -50.44195669  Gyration_radius:  2.44510042946 Dipole_moment: 4.537
 S          -0.93313188845771   -1.40773623113460   -0.90169388288284
O           0.25415593480177   -0.61512164584981   -1.11169962567201
O          -0.65507962044705   -2.75769337524384   -0.46748611160546
O          -1.88512820642918   -0.73976887886842    0.00580116025190
O          -1.67000294795694   -1.52114410044048   -2.29064017121047
H          -2.34387690650637   -2.17657394432914   -2.13923120297076
O          -0.03287518083412    2.74369160192031    0.57723923041102
H           0.26320878176494    3.50485381041959    1.07851877545729
O           1.53257197838728   -0.50653563637266    2.00907463249742
H           1.70567463610018   -0.86971594854802    2.87955934394550
O           1.95088091473150    1.25026118196537   -0.20033398370463
H           2.19114645440491    0.77227489671362    0.60293523894021
H           1.41394618406384    0.62048808256138   -0.71649567024583
H           0.77659335206944    2.31645058213986    0.17655225604759
O           1.80684288745630   -2.45160389704231    0.33066906348021
H           0.88787113149329   -2.70910590185691    0.08223425706404
H           2.17964753203679   -2.08334304399008   -0.47478589184014
H           1.64043067883617   -1.27379329937217    1.36529377965564
O          -0.78456798277736    0.59593565981303    1.73102567002060
H          -1.32091072702023    0.00240229443961    0.97522578184327
H           0.11455317177864    0.14193811175227    1.86462016310486
H          -0.58637203042607    1.50371649760634    1.29589412296155
N          -1.73927811750859    1.55243163457569   -1.89048042402504
H          -1.04687889901634    0.87014980617017   -2.17431648609068
H          -2.43473169543070    1.04451611392918   -1.35766870624545
H          -1.28468941511199    2.19302563904072   -1.24981131919096
