    26
        -50.44195639  Gyration_radius:  2.44512514732 Dipole_moment: 4.530
 S          -1.86486106868716   -0.10589797863267    0.41970286213268
O          -0.61573575573921   -0.01115517479850    1.13569695903037
O          -2.61205179915144    1.13098838003753    0.39910762839089
O          -1.67686032917534   -0.63994219367630   -0.94234187134575
O          -2.75816142929279   -1.16123494844117    1.17707930716068
H          -3.61751293913850   -1.06093222007499    0.77921042188602
O           1.06241924135424    2.22455130096090   -0.75022777171305
H           1.12324267388850    2.98900056662168   -1.32603216933347
O           2.22396595595319   -1.47618497496853   -0.85710722534349
H           3.11301826555041   -1.53659314152784   -1.20965634025361
O           0.45730162407240    0.01411350928554   -1.93742471542263
H           1.14709143292377   -0.66098702721721   -1.58940974883079
H          -0.51560080999586   -0.29957648528988   -1.52982175771765
H           0.67909922690013    0.90123223513400   -1.49439791687927
O           2.05035949831790    0.26226781232045    1.07118759365427
H           1.11489420490289    0.08802310505833    1.28528403043339
H           2.26920572750278   -0.92367747728392   -0.02584436544931
H           2.04522005426162    1.10611505176057    0.60286026612572
O          -0.70925625648858    2.79121696681037    1.04303204456475
H          -1.51471345814366    2.28627327289527    0.78057021019460
H          -0.42545539365957    2.38172971409302    1.86470510046689
H           0.36816926049374    2.45673526704272   -0.05821044871708
N          -0.35802290682887   -2.95406114227223    0.39213253481944
H           0.57091072119254   -2.77132869636412    0.02994839242593
H          -0.54627330380353   -2.25617122616308    1.10133653278028
H          -1.01039242721023   -2.77450448531295   -0.36137954306100
