    26
        -50.44195652  Gyration_radius:  2.44508771758 Dipole_moment: 4.529
 S           0.94104676182798   -1.07144958717873   -1.27708038671937
O           1.20585519533082   -0.46298706803736    0.00412698703715
O           0.74177856819046   -2.50101226935346   -1.20561340658525
O          -0.17608208572328   -0.41024819299888   -1.97755674335224
O           2.21378017595773   -0.83651309901864   -2.17732168960170
H           2.06434983568359   -1.39391864329449   -2.93477392475378
O          -0.93937552517757    2.58418557757424    0.54571902363949
H          -1.49163017340822    3.19650818331530    1.03402399426254
O          -1.68276102400380   -1.06477094847118    1.63535277181889
H          -2.46279161340924   -1.58439303617787    1.83822531060726
O           0.30666816919270    0.92417391075322    2.11487462642213
H          -0.38268261882220    0.29215306895965    2.35319047459762
H           0.82063326831392    0.48255550513813    1.41339249290239
H          -0.37396258344168    2.09707479814508    1.21010537252151
O           0.26351394835815   -2.73946890078074    1.34529018804451
H           1.05692627203141   -2.31798463148645    1.68618435819376
H          -0.93294747110231   -1.72782147649348    1.52260660295259
H           0.41271759172778   -2.79685208906518    0.37218349517737
O          -1.88843192404809    0.43714246731924   -0.45374611428718
H          -1.14450108580808    0.06706617732792   -1.17569266400190
H          -1.83025620481533   -0.17533090816106    0.35485494479381
H          -1.55517938048152    1.35616993881159   -0.14233480265771
N           1.39079242185734    2.09969295922639   -1.63260461984498
H           0.74175986098133    2.54435432213926   -0.99345756236229
H           1.86389590886356    1.36678071500954   -1.11828847951731
H           0.83688369193242    1.63489324679859   -2.34166023928898
