    26
        -50.44195686  Gyration_radius:  2.44515253695 Dipole_moment: 4.535
 S           0.81026424737144   -1.51380232316728    0.84700623928131
O           1.33538287495033   -1.31278525653065    2.17825929179268
O          -0.51940882727030   -0.98315112068727    0.66700523399709
O           1.74485267281541   -1.01132575761870   -0.17781081019163
O           0.72465618283507   -3.07201350865514    0.62390017347898
H           1.57516721727648   -3.39108369174920    0.90925350146471
O          -0.74145901844240    1.09495319916069   -2.47228800331731
H          -1.01235085237311    1.83043927045215   -3.02367716709905
O           0.02147127406849    2.31479341680619    1.13248290731607
H           0.46499911012529    3.06468430671639    1.53317284061874
O          -0.28534869090838    0.55542643183834    2.99959793774100
H          -1.12085318768992    0.10931833956188    2.83731554200867
H           0.39977177335358   -0.13110120038297    2.82117052727095
H          -0.09010792275954    1.63646732370982    1.86884898320426
O          -2.09128089772454    0.98598066668002   -0.25047741707928
H          -1.40438033947706    1.01896902352118   -1.72856510540172
H          -1.69357408541904    0.15716671577062    0.07543186672022
H          -1.68822962761324    1.68189772951141    0.28309858063186
O           1.24860574378633    1.27432230086280   -0.88586230943815
H           1.51124025791534    0.24648499807437   -0.59219688069864
H           0.52647553630501    1.19026819519234   -1.60980450545425
H           0.79569907896276    1.69443303929967   -0.07918819653729
N          -0.20763647173516   -2.07242048932092   -2.16129233556071
H          -0.48062164562693   -1.16999958424375   -2.53355795102606
H           0.79515501325391   -2.04451836523516   -2.02255263427600
H          -0.61848942598103   -2.15340363956839   -1.23927031944513
