    26
        -50.44195652  Gyration_radius:  2.44511065158 Dipole_moment: 4.533
 S           0.28579333339023   -1.67856611030355   -0.87501127105700
O           0.73944788619971   -0.31576270549472   -1.01215613412901
O           1.27401779895361   -2.55891320891802   -0.29458657641553
O          -0.99511040583452   -1.75938262762023   -0.14806121727826
O          -0.00704900166042   -2.22125245099185   -2.32593314722498
H          -0.13382216443359   -3.15646401120029   -2.19902414756201
O          -1.80953183612261    2.11742653304997    0.31936871727436
H          -2.12712190037253    2.89469679148217    0.78127164088499
O           1.19699012151049    0.55860691606067    2.21240462465649
H           1.42621731728337    0.38171037309825    3.12662540659502
O           2.86193215074004   -0.78274151590490    0.76164441346109
H           2.35000232152579   -1.55731301270398    0.42922361474104
H           3.04318404949337   -0.25909347532527   -0.02338535152149
H           1.85062126273681    0.02913581585662    1.65818293415562
O          -1.23072839499033   -0.03238389577355    1.56508288577284
H          -1.57552587910417    0.80105556497188    1.07589940053980
H          -1.16415483786948   -0.82904121423872    0.80886701518337
H          -0.27623120895229    0.17617935651009    1.84404182318951
O           0.76000794946168    2.19841691332125   -0.08187585152387
H           0.81199914590132    1.37278024713660   -0.59853288681799
H          -0.86143221245024    2.29256989938598    0.05711000387803
H           1.12184869383580    1.97289282298170    0.78392482151146
N          -2.02558230282983    0.12600121800651   -2.21126281082027
H          -1.02773935924854    0.02811530201365   -2.35331367974249
H          -2.32391457851823   -0.70701326853698   -1.71869019979445
H          -2.16411795864594    0.90833972313873   -1.58181401795740
