    26
        -50.44195645  Gyration_radius:  2.44505476381 Dipole_moment: 4.532
 S          -0.58104396061678    0.17475409047074    1.81580840115969
O          -0.66454673341681   -1.03917011458558    2.59554201412233
O           0.65120561748116    0.29894522772123    1.07549261601809
O          -1.76165946371649    0.33370403700086    0.94599026818302
O          -0.63418798504392    1.37375060163670    2.83805605370225
H          -1.36398389061023    1.15515425567717    3.40936365189635
O           0.00529142741370    1.24143424446379   -2.51379254233219
H           0.12723874461308    1.22374663540670   -3.46415808879272
O           0.42432441976478   -2.32120028352611   -1.03563479307413
H           0.15589150502277   -3.20968073243239   -1.27682889780285
O           1.95959002424500    0.07395052853449   -1.25369270060741
H           1.64253767713061    0.27933701032325   -0.35448450233002
H           1.76734704639066   -0.86376620629811   -1.37688228119304
H           0.85864792911557    0.93043575776718   -2.09736349542756
O           1.20420282237475   -2.42874855560462    1.42532520425754
H           0.72340261748084   -2.37613725079797   -0.07529725096059
H           1.93265987335465   -1.80955166514727    1.52129933610033
H           0.46951833927214   -2.02896608012209    1.94768198471145
O          -1.40120698345278   -0.51811519282314   -1.31610613113507
H          -0.70709180909448   -1.25110951761715   -1.20086413305318
H          -1.60795722008229   -0.12725411727060   -0.30834361818701
H          -0.93650832938779    0.23922029573178   -1.82925604773366
N          -0.55531413035691    2.94431893793043    0.17010668649987
H           0.11811620986596    2.45540581955603    0.74708014269390
H          -0.36494770494786    2.69212144703497   -0.79305117827224
H          -1.46152603280233    2.55742084697195    0.40400930155765
