    26
        -50.44195689  Gyration_radius:  2.44534038177 Dipole_moment: 4.537
 S          -1.37384955446335   -0.23967555073804    1.31223661002538
O          -0.98615679336035   -0.84132412852670    0.05935049507442
O          -1.04094196840755   -1.04498388988590    2.46510515287497
O          -0.84815709912653    1.13180652499168    1.44828012939360
O          -2.94384140178812   -0.09887945715037    1.29602843508174
H          -3.16105095280934    0.13790293927764    2.19238899282701
O           0.86606977653460    1.62578202523562   -2.11485810140317
H           1.53741361575102    1.92604693177549   -2.72924698550299
O           2.37158889631117   -0.93222961861843    0.38451085725226
H           3.18467279703883   -1.01729492857759    0.88578753598629
O           1.33205411096370    1.43049819125710    0.38584668869387
H           0.35362036602486    1.33843503823245    0.88229580558161
H           1.75529674431560    0.50739298453875    0.41601786027306
H           1.13539148852829    1.62430835068428   -0.60226922523266
O           0.70942210636833   -2.64207853258873    1.37918433419303
H           0.08282508825095   -2.10697157914598    1.92083534341996
H           0.17545789234881   -2.97596131591961    0.65335327832987
H           1.73250087601496   -1.60134700127301    0.78279215316861
O           0.76140928818989   -0.97009386197226   -1.97057182967704
H           0.77103647527599    0.63851525537731   -2.23535481216954
H           1.52436333280919   -1.18748293153528   -1.42092043411246
H          -0.00365536087765   -1.01389724454225   -1.36724498381599
N          -2.21298545104841    1.67356526164491   -1.14507603266025
H          -1.36404862566643    1.82728992716131   -1.67719002815963
H          -2.27050800835118    0.68116412450092   -0.95184056678670
H          -2.08792761882861    2.12951251579577   -0.24944065266193
