    26
        -50.44721175  Gyration_radius:  2.51040641752 Dipole_moment: 3.927
 S           2.00823563423800    0.35587641544409    0.59822025268894
O           1.48844685654336    1.68933996839982    0.95266301523539
O           1.13066141799462   -0.68279981060980    1.11613086803228
O           2.30304408060388    0.21839851891118   -0.79910370707843
O           3.36647121603126    0.23907025668899    1.39535619669054
H           3.08493199630797    0.49645435808283    2.26677251330269
O          -2.16626953149378    1.91517794018847    1.78340006986267
H          -3.11347741711935    2.01808649202660    1.67952267572456
O          -1.39514468219330    0.51276882222769   -1.58519713246195
H          -1.86602942801619    0.78159185665997   -2.37546732698661
O          -0.57078861868009    2.44680753014793   -0.13130734279322
H          -1.22226587582941    2.38625710007002    0.65873693126730
H           0.38252354512468    2.15271478412518    0.30745759363926
H          -0.85252831733724    1.69552903919283   -0.77018423947218
O           0.50045612699906   -0.96878797318775   -2.34598781952931
H           1.27130545285030   -0.52797084447388   -1.93439528130766
H           0.40032050514754   -1.80529080290491   -1.82824725510484
H          -0.62546431593667   -0.09092177792701   -1.91658988652884
O          -1.52972610791023   -0.50356959626299    1.04913692015911
H          -0.56539397276203   -0.61598369197714    1.18086852260443
H          -1.96878368636155    0.94250679523711    1.67707368649829
H          -1.64592638385657   -0.41930330871034    0.09298226751435
N           0.35992777760239   -2.94319909825126   -0.51624394804533
H           1.01132863673887   -3.71574500429217   -0.57049270751953
H          -0.51300716769023   -3.30033807588618   -0.14797071700246
H           0.72715226900841   -2.27666991291749    0.16286584061302
