    26
        -50.44195638  Gyration_radius:  2.44532057038 Dipole_moment: 4.529
 S           0.97891322885599   -1.54521703357450   -0.56518981148657
O           2.30860930314194   -1.71256888205924   -0.02446631931996
O          -0.01087661971888   -1.21873492143207    0.43265047869816
O           0.97235239062661   -0.57959301680798   -1.68019719460272
O           0.56886427826697   -2.93184540072223   -1.19327521899832
H           1.33199372466857   -3.18654011359579   -1.70252134841536
O           1.09446733521064    1.78218078929740    1.50697120145849
H           1.77739779507864    2.42330614811144    1.71234827732100
O          -2.13265326673479    1.70074097751524   -0.64617328509052
H          -2.62173400801830    2.51863866775144   -0.54535691342193
O           1.98925003334948   -0.51854854456059    2.27032311168350
H           1.23938918352265   -1.02228794254511    2.59779352771649
H           2.25545507523638   -0.98191430254645    1.44157347301045
H           1.45579677251592    0.89098756253704    1.80659804851577
O           0.39714346989400    1.68879628800192   -0.97656632036471
H          -0.62805058010977    1.72344774795280   -0.95621487230690
H           0.70254655228887    1.73672751208875   -0.00879517533774
H           0.66514846881885    0.68312205804470   -1.33581623468374
O          -1.51597482372742    0.63797608111123    1.64735708526875
H          -1.10897323461597   -0.16997449988340    1.28288213760078
H          -0.77343503120507    1.17856922516176    1.94377457521662
H          -2.07812936785540    1.27205531302396    0.25471461530366
N          -1.92021137955714   -1.24546158912400   -1.94294219333548
H          -1.11977899935310   -1.09226082468675   -2.54410029618016
H          -1.56566779560937   -1.69919193421663   -1.11002846076735
H          -2.26184249496934   -0.33240939484233   -1.66534287748474
