    26
        -50.44195625  Gyration_radius:  2.44520069966 Dipole_moment: 4.528
 S          -0.14825537493521   -1.88618315403155   -0.29182221080383
O          -0.80675752318699   -2.65911990949223    0.73651690511612
O          -0.86689449930003   -0.69109269609872   -0.66212861005756
O           1.25078653401433   -1.59352230486638    0.07240921395162
O          -0.07774635549285   -2.80407251397211   -1.57165037536612
H           0.24035812294765   -3.63728310220931   -1.23799996479352
O           1.40456539010980    2.31080487612636   -0.74052887584810
H           1.66382404462583    3.22293587900734   -0.60218844480280
O          -0.77370289984402    1.05997827786035    2.21788407590341
H          -0.76196854529276    1.14183246389063    3.17329657429857
O          -2.43106609280525   -0.84299819988534    1.66204506815252
H          -2.87343286251364   -0.60644628450481    0.84246065512406
H          -1.86791185996553   -1.61688457593634    1.42471492232990
H          -1.42029794130992    0.31495237107262    2.01440338891770
O          -1.15932775127596    1.96629846091040   -0.46044842462430
H          -1.16539896318331    1.02265914485910   -0.70697003810345
H          -1.27612931670726    1.97381543266965    0.49753744017055
H           0.40657829433377    2.28672752937802   -0.78185371397684
O           1.52293546710746    0.58864085923622    1.13832316026462
H           1.59088361705477    1.26802060610790    0.37260887772754
H           0.62971532158391    0.75934364056204    1.59152357061807
H           1.44517257328047   -0.40273292396688    0.66661967662756
N           1.44371970905029   -0.31653908811969   -2.61233741191741
H           1.56472613904456    0.63021821803049   -2.27102380428493
H           1.99073832265880   -0.92053377447316   -2.01110353775249
H           0.47488644000498   -0.56881921215255   -2.46028811687025
