    26
        -50.44195618  Gyration_radius:  2.44516078479 Dipole_moment: 4.529
 S          -0.57804461219557   -1.02355171467062   -1.51098717964524
O          -0.13821986355627   -0.57634065818430   -2.81292193605912
O           0.48076809588388   -1.07352128854849   -0.53202969055623
O          -1.72820522334165   -0.23274466458219   -1.03417118026485
O          -1.11310840663351   -2.49498124922879   -1.69556942745240
H          -1.67479689279607   -2.43916778300868   -2.46246840508734
O          -0.54145313131114    0.59010299305920    2.68704461901757
H          -0.43585741532656    1.13028146705029    3.47151501088575
O           1.33784886598875    2.18016087337668   -0.31335706098846
H           1.45846732346388    3.06216766508206   -0.66992815617231
O           2.12320402345277    0.53257206178826   -2.14244205776725
H           1.64472396896727    1.54820283195526   -1.03519911978793
H           2.53046050278614   -0.21545345470852   -1.69755198586436
H           1.29591017167833    0.16656734629897   -2.53485110214231
O           1.73710495860145    0.05560596765338    1.54984951341169
H           1.37393563235873   -0.52828980856094    0.85813915305830
H           1.95067407041414    0.87877831350352    1.09355668769912
H           0.36929276596856    0.29107701320308    2.40529679555051
O          -1.07452516742072    1.62283379630706    0.41566782220731
H          -0.97298205195685    1.22265350295198    1.35484952562201
H          -0.13720935341400    1.86425706412697    0.10650471194861
H          -1.41260844234887    0.80275567528238   -0.23555812362684
N          -1.73165953539238   -2.07314114302207    1.30829616159909
H          -0.90973309023255   -2.28320404940852    0.75532996880246
H          -1.46301543041872   -1.37515729142822    1.99248720604560
H          -2.39097179322065   -1.63246346628294    0.67849823956582
