    26
        -50.45381455  Gyration_radius:  2.64805080011 Dipole_moment: 1.732
 S          -0.47615683790637   -0.56347322556264    0.31699783041969
O           0.56298260650351   -0.72182416740363    1.29561973140141
O          -0.52946748105495   -1.80692887054661   -0.56203196969613
O          -1.83825148762435   -0.52680438305159    0.99009582719885
O          -0.32670616604985    0.61063095618539   -0.52563383766601
O           0.34188979736297    0.33826907328925    3.74504264194460
H           0.28202412699323   -0.39864753447865    4.35577542999894
H           0.57654867670297   -0.04385487071798    2.87680973417684
O           1.41026716657079   -1.41208428009613   -3.56349424896296
H           1.82736310224710   -1.10877992693866   -2.71607678019333
H           1.53377102700555   -2.36187459296528   -3.60204319032008
O          -0.90655684683458    2.89674948487239    0.74391335516988
H          -1.50168362489754    3.39046061792068    0.17665825781318
H          -0.60587722799921    2.12408339648981    0.22661061895443
O          -1.02782045958473   -0.78992634825740   -2.78827150274969
H          -0.91011868288734    0.09169216971286   -2.41110351395164
H          -0.17300578452743   -1.00363448411606   -3.24958052447162
H          -0.82907621299141   -1.50246904075578   -1.51025993186405
O          -1.87279300989084    1.31212868779446    2.65285280799669
H          -1.10337692298011    1.07058050748302    3.22132596809291
H          -1.56448499224834    2.05914120518208    2.09070761856202
H          -1.92186853870659    0.25124855590079    1.72986469555821
N           2.24832225248409   -0.58804610163459   -1.13568690653474
H           3.17396797209724   -0.21625865699573   -0.95776296173378
H           2.04632941190117   -1.26603260753157   -0.40932109198095
H           1.58377812628661    0.16565444622601   -0.99100804718239
