    26
        -50.44195667  Gyration_radius:  2.44515829887 Dipole_moment: 4.533
 S           0.77235911739432   -1.67442265486121   -0.51505957216500
O          -0.06605099098291   -2.84536448990327   -0.39516053589934
O           0.11764998943367   -0.56192464941760   -1.15972708714406
O           1.34651481992948   -1.29225413031562    0.78889330740152
O           1.99585826910653   -2.08447408943311   -1.42072441116011
H           2.28739715049138   -2.91182040739548   -1.05038930592820
O           0.58525880060352    2.62253395679951    0.80145353612114
H           0.33539570586833    3.46369708281048    1.18666579387993
O          -2.35992272862601    0.10607594208152    1.02953956964754
H          -3.01662458001971   -0.13758241956577    1.68452982762828
O           0.03283659172752    0.41138630892721    1.94812258082584
H           0.34208479120570    1.31122197270590    1.56424003043124
H          -0.91535868624993    0.26932501040817    1.61184211573149
H           0.65116603983688   -0.35973066361806    1.46383442892839
O          -1.15832778713625    1.78596380687948   -0.93934405452583
H          -1.87398420789679    1.45018594015022   -0.38569085683380
H          -0.03296205608807    2.44937298089943    0.03587370475924
H          -0.66092573761675    0.99358274653224   -1.21500589130652
O          -2.39702795903037   -1.74314885323744   -0.77473892675477
H          -2.22608889401201   -1.32052799310308   -1.62064132669330
H          -1.59277658227066   -2.28747445495523   -0.60348549896355
H          -2.38261581525399   -0.62242192088059    0.33424823522788
N           2.79253165587696    0.82797668085766   -0.72340178953441
H           2.30848303350351    1.61088335989007   -0.29894686899390
H           2.97232752060983    0.15630959928444    0.01283243466749
H           2.14280252959423    0.38263132846710   -1.35975943935051
