    26
        -50.44195662  Gyration_radius:  2.44513767387 Dipole_moment: 4.534
 S           0.97481721738201    1.55509894805035   -0.54548402152910
O           2.08191440797671    1.95938892824829    0.29080391961168
O           0.96741268481705    0.14412869147296   -0.84717352584572
O          -0.31266516132072    2.00206520618304    0.01902010245954
O           1.13576602569161    2.32365890532782   -1.91243779560254
H           1.30315678723381    3.22380214165699   -1.65052639666899
O           0.53938267687373   -1.18657659986047    2.22306860186187
H           0.65184060986447   -1.20386818888572    3.17526994084259
O          -2.43644582134975   -1.36264449771098   -0.26031778210153
H          -3.06899433526346   -2.02375428305900    0.02461035478531
O          -0.01114386340751   -2.30109420332005   -0.34547615619825
H           0.24864545529755   -2.31519706602335    0.58391456788752
H          -1.56986829210226   -1.83112589150419   -0.42731766483066
H           0.40129578590140   -1.49576295373002   -0.70955738111915
O           2.78053033013376   -0.36879900595679    1.23072690394498
H           2.91103584431725   -0.83216098754993    0.39904890537482
H           2.62095531395082    0.56845906032226    0.96876520372090
H           1.41752272546052   -0.86470294658378    1.84903877567369
O          -1.40238463282591    0.29208246030592    1.38324463332330
H          -1.91393267946967   -0.30611557145153    0.72503761472835
H          -0.63538196757202   -0.26993010752846    1.74131411227270
H          -0.94461550217761    1.09218112302565    0.78191400887953
N          -1.53424744684586    0.84235608343954   -2.43782392811773
H          -0.55222349112228    0.59515213191566   -2.43555838868386
H          -2.03306139619772    0.09582979432760   -1.96727354765488
H          -1.61931125524514    1.66752884889078   -1.85683105700748
