    26
        -50.44195679  Gyration_radius:  2.44504396083 Dipole_moment: 4.533
 S          -0.79525219271732   -1.72224279204164   -0.25693525565764
O           0.53138004891805   -1.15502547587549   -0.24284517588416
O          -1.11050000927557   -2.48005121877696    0.93245146005456
O          -1.82515438175708   -0.70195691326366   -0.52923048959107
O          -0.85819432837441   -2.73077459260064   -1.46698445414130
H          -1.68127441476974   -3.19178819180897   -1.33831694167129
O           0.46923984767239    2.48869313497463   -1.20143222956819
H           0.71392205731764    3.41427384522867   -1.15958801685896
O           0.31182147423242    0.97085021243766    2.36665484502047
H          -0.01358924105129    1.24631791000279    3.22563299156037
O           2.10507562921150    0.98048509771360    0.14736871847266
H           1.83353950126849    1.12915853172253    1.06149123313721
H           1.69530843659285    0.13112495629742   -0.10158328422266
H           1.22229364690299    1.96244866511303   -0.80857993754926
O           0.74379185553925   -1.57174392561863    2.52251103156959
H           0.47397737806315   -0.02068495669141    2.43978329633667
H          -0.00865933979229   -1.99095873561162    2.04229150442150
H           1.51305329697496   -1.76456569764511    1.97989105429846
O          -1.26052231469722    1.49196744251704    0.38704704123345
H          -1.55663744708315    0.52041173195833   -0.03713198899457
H          -0.66895033289321    1.28538494284743    1.18679944466525
H          -0.65481419787517    1.93774543859650   -0.31091269212510
N          -0.25816817983422   -0.09740250956061   -2.98906998055233
H          -1.22513809207158   -0.20544039613997   -2.70820388583147
H           0.03074294557043    0.83203732511989   -2.70598835341618
H           0.27270836392973   -0.75826382889517   -2.43511993470683
