    26
        -50.44195664  Gyration_radius:  2.44510091848 Dipole_moment: 4.537
 S          -0.31007736342395   -0.74432626141163   -1.73627404786258
O          -1.52596759750484   -1.50537312726415   -1.91219384518755
O          -0.51385253914459    0.51899985678265   -1.06965452718259
O           0.73417607931433   -1.55058013529534   -1.07647535377800
O           0.23855027838249   -0.42718195160312   -3.17973631713841
H           0.19646450389273   -1.26547408325360   -3.62931789967573
O           1.97114019066823    1.00136648690494    1.72460797382815
H           2.27876107163119    1.26578281111584    2.59284418411290
O          -1.59914181540865   -0.50093062301348    1.95775434936881
H          -2.06540332461425   -1.09613916907836    2.54761947168931
O          -0.38547037988919    1.96340208715986    1.18559640346719
H          -0.97447123388366    1.39265337892714    1.69429254381354
H           1.15050775425534    1.53469677519622    1.52336945416169
H          -0.43300291629989    1.62389617963061    0.27251213682677
O          -3.04414492876208   -0.29398162603909   -0.17422716351834
H          -2.17060748655573   -0.43041964371447    1.13122857699290
H          -2.95025515185261    0.60632585420811   -0.49676491938299
H          -2.58681136074326   -0.84741593118583   -0.85022087660265
O           0.79927598888952   -1.23273083105940    1.34579419263583
H           0.80135451260876   -1.41011869683443    0.25967546787533
H           1.37051765190240   -0.39460577580412    1.50109826014753
H          -0.15302480963812   -0.97755320154226    1.59132865310910
N           2.49116560384702    0.82434334607604   -1.45700599847262
H           2.53888206206931   -0.18347910406744   -1.54413704408105
H           1.55204287574226    1.08719788912681   -1.72995712283141
H           2.58939233451390    1.04164554603725   -0.47175654231409
