    26
        -50.44195662  Gyration_radius:  2.44517298334 Dipole_moment: 4.531
 S           1.13108778860478   -1.07787054429463   -1.10695057337849
O           0.47885046078500   -1.93267347648546   -2.07252368186005
O           0.62360555846841    0.27288100688509   -1.09955739808801
O           1.10993861799265   -1.67894381373893    0.23993001882209
O           2.65011019804573   -1.00348317899930   -1.52189643784536
H           2.88888605313895   -1.91155987387811   -1.68037163757526
O          -0.12577514172424    1.43564432673399    2.40484393225001
H          -0.61564289363157    1.87820129733738    3.09948697780270
O          -2.56482117228810   -0.22174423699939   -0.11651953812657
H          -3.38105590078525   -0.72266838355717   -0.06698653965738
O          -0.94860190591613    2.12498335833802    0.03453982836112
H          -0.37808071091803    1.86746376752340    1.53986850790582
H          -0.28057739600481    1.61581795130085   -0.46120613239050
H          -1.76729934708427    1.62366083178564   -0.06479223249263
O          -1.66296142305979   -0.51660093821382   -2.51969582939950
H          -0.91664886615124   -1.15624977616034   -2.43983123233548
H          -2.22281971781265   -0.34653750967746   -1.05579883922425
H          -1.24473119121766    0.31107091761763   -2.77154219065217
O          -0.76336869198034   -0.90083231281642    1.60279803245381
H           0.09101319629582   -1.28129748125952    1.02230444812989
H          -0.45769157887110   -0.01351061694393    2.01746453530265
H          -1.48487030552741   -0.66548620258926    0.92729594955882
N           2.71669969892706    0.68738849512260    1.07419223470116
H           2.69662409823513   -0.31340476257544    1.22768168688791
H           2.42289457425741    0.83236108528991    0.11603134850692
H           2.00523601821978    1.09339008025489    1.67123475234207
