    26
        -50.44195659  Gyration_radius:  2.44527558794 Dipole_moment: 4.528
 S           1.51336785869491    0.61448880994650   -0.99939045224441
O           0.09048559263526    0.85162585836578   -0.96816990533313
O           2.28904546722358    1.68752972624654   -0.42043480897802
O           1.86588060521273   -0.68530719089242   -0.39749110037566
O           1.93701748590791    0.51660864773240   -2.51473895792975
H           2.88875835989366    0.53320873899115   -2.48782965953404
O          -1.77232744567959   -2.14326902764557    0.35365493333544
H          -2.43880690897383   -2.61407225368538    0.85615932544197
O          -0.49762611542117    0.92878553423047    2.35169327250411
H          -0.26181658304483    1.11649146647062    3.26206808035808
O           0.41406607951328    2.88794448978221    0.93482849623108
H          -0.21151424349277    3.04038639743190    0.22154305520643
H          -0.13532970642628    1.69709731834517    1.81045936433019
H           1.21761474929817    2.53268213656907    0.48704497482264
O          -2.28519205105132    0.40250694392053    0.19075679315358
H          -2.11645566175720   -1.21895316876992    0.19376416466368
H          -2.02649914086057    0.73153124068447    1.06041257246228
H          -1.53671394414195    0.62333439065125   -0.39424241244608
O           0.38442930673485   -1.31919005377861    1.43961570435601
H           0.06354253168925   -0.43357747701097    1.82024790527547
H          -0.43366162384646   -1.75659160084669    1.00159481769561
H           1.07788727271264   -1.07052464737990    0.62135394303890
N          -0.04794096045728   -1.85669991169121   -2.35757060556662
H          -0.72881740508054   -2.16368586220849   -1.67228469558663
H          -0.11768078003085   -0.84834204017422   -2.41910603860808
H           0.86828726075171   -2.05400845528225   -1.97393876627190
