    26
        -50.44195657  Gyration_radius:  2.44520268585 Dipole_moment: 4.526
 S          -0.67018785748212   -1.44696999855100   -1.05966296374543
O          -0.43389383230334   -0.03220270292413   -1.21645247247829
O           0.30610215991066   -2.27211075429597   -1.73371782304496
O          -0.80292605998124   -1.82683182971541    0.35960519160566
O          -2.06506052093037   -1.76345229015427   -1.72258048146942
H          -2.09663581799982   -2.71488558446310   -1.74639153267506
O           2.53312825115879    0.32379268024621    0.34573758829268
H           3.40188631986997    0.02342834374456    0.61900278453615
O          -0.61986530857358    1.76533934076040    2.08768344366890
H          -0.36817614132234    2.40009203327294    2.76005952480410
O           0.58600259824038   -0.46985399592189    1.84313411271396
H           0.04514506342779    0.38115996011495    2.03223908031304
H          -0.05116879987176   -1.10745522743055    1.21083531586151
H           1.36985949155808   -0.18527927615311    1.26282073328807
O           0.51224979161379    2.26224227712117   -0.20198984599608
H           0.06142618532281    1.55364820974216   -0.69783342039127
H          -0.28620685394842    2.11032071779423    1.21137914741150
H           1.41297739695336    1.94066307353114   -0.07252192988528
O           2.19375512527634   -0.50795801326107   -2.07696046551964
H           2.41229645645369   -0.00808918693544   -0.59760689894133
H           1.57812070178030   -1.27485461149107   -2.00418487031027
H           1.68767993157442    0.16384803375633   -2.54165357105299
N          -2.95472515255845    0.23121926854833    0.47349561222208
H          -2.46297291992285    0.86587467036586    1.09227712428595
H          -2.51298664786415    0.29583374975820   -0.43542872486442
H          -2.77582354037965   -0.70751886745820    0.80871535136984
