    26
        -50.44721133  Gyration_radius:  2.51034833542 Dipole_moment: 3.938
 S           0.02710857382074   -2.08413652656721   -0.43029698696387
O          -0.22056760984842   -1.01502508950822   -1.38562797219772
O           1.40497951898738   -1.99911031777286    0.08801127678365
O          -0.96109352426840   -2.17219052191651    0.60599751503312
O          -0.00240382222175   -3.43587764145378   -1.24626255013875
H           0.77577527270929   -3.33743660333189   -1.78443024025621
O           3.11678676730669    1.33231691659621   -0.19020036497880
H           3.41129542098577    2.21894622031860    0.02394785024333
O          -0.10289433709351    1.36181973829511    1.68989351093449
H          -0.20961059439736    1.82318264517923    2.52312457411913
O           1.97123680023524   -0.12630601122025    1.55763543704611
H           1.11226995057918    0.42317674001372    1.66717042591626
H           1.71631803732805   -1.00242698867978    0.96031401301227
H           2.56426155097694    0.42424001613369    0.92717186356346
O          -2.22674025587484    0.05241188581533    1.31417059980383
H          -1.87921865898864   -0.85191064313034    1.17499525199263
H          -0.97959204129905    0.83265326131142    1.55512337339304
H          -2.54363853568353    0.32655244880458    0.41843199545314
O           0.65365213860976    1.47995087285496   -1.03145999816463
H           0.36177182551198    0.57680648172324   -1.27440433676544
H           0.20880039339445    1.67280769028897   -0.19492155080963
H           2.25137978488809    1.42635741865693   -0.67823621841705
N          -2.65501780359823    0.54654417725432   -1.30092397648483
H          -2.45564467176548    1.43953973695369   -1.73464120990583
H          -3.47145855911031    0.15798285307521   -1.75545180171347
H          -1.86775561118607   -0.07086874969246   -1.49913043049581
