    26
        -50.44195661  Gyration_radius:  2.44508654806 Dipole_moment: 4.531
 S          -0.37242067281397   -1.68870538819422   -0.82183852333618
O           0.78781808800010   -0.88956150660239   -0.51045172259583
O          -0.54544244501658   -2.82052779939653    0.05994484065892
O          -1.59883842243174   -0.87182636477196   -0.89016498480584
O          -0.16195375537030   -2.27191418652555   -2.27123696879143
H          -0.85802661557117   -2.91533842292006   -2.36252420537841
O          -0.07126035755109    2.77716302687031   -0.37920647912546
H          -0.04579293330477    3.67558480297819   -0.04670376474657
O           0.00168273301754    0.25093203768575    2.56465896213452
H          -0.40746165655097    0.17940841528983    3.42902116252253
O           0.99503711227131   -2.07228225338208    2.02454835922606
H           0.38249548752396   -0.66006304237543    2.36523453696643
H           0.37564010136250   -2.47263270541258    1.36994754406781
H           1.80686636870850   -1.92817800745801    1.53107440521411
O          -1.58035158921117    1.00831501743845    0.67094496227113
H          -1.06935879749827    1.76058179164270    0.19582781362867
H          -1.63252020512057    0.17182301034008   -0.04260375588881
H          -0.98447924072831    0.69679808683482    1.43266876552479
O           1.81943224565822    1.30446398531621    0.63385755640231
H           1.49051235665742    1.10894831255781    1.51989695096507
H           1.62267571668260    0.50505078701132    0.11091998140635
H           0.76827897799401    2.32468106594845   -0.08134436699949
N          -0.12719191115374    0.76209977322541   -2.89973825729635
H          -0.06795464683918    1.60071998347583   -2.33342343743063
H           0.52414107609946    0.09101785308926   -2.51136877853113
H          -1.05152701481169    0.37344172733231   -2.75794057606307
