    26
        -50.44195652  Gyration_radius:  2.44511256209 Dipole_moment: 4.533
 S           0.18233726835953   -1.89354681141005   -0.21449269506261
O           0.84062597920253   -2.61232377459454    0.85255466851720
O          -0.82089631768749   -0.96641612055260    0.25012739213865
O           1.16183723938854   -1.24124565131206   -1.10375067818738
O          -0.55251957461931   -2.97130110123227   -1.09971209201954
H           0.10828909170202   -3.64291762687044   -1.23798797151772
O          -0.41829944766086    2.41251087910188   -1.36654136751708
H          -0.40484650975463    3.36954956574961   -1.41397183904262
O           1.05433924252243    1.20957791361013    2.01597906408065
H           1.79614974792014    1.44805108969481    2.57498973491575
O           1.58702618418106    1.09010462352213   -0.50661099313550
H           1.42937017896820    0.04321635900610   -0.80714342791542
H           0.83977497615822    1.63351726835576   -0.95263677901324
H           1.40966537364398    1.12955114342569    0.49313437111935
O          -1.51792763609786    1.55653928223888    0.83085555747474
H          -0.82487083677650    1.69433427763234    1.48824721820325
H          -0.99423571232127    2.16021146284223   -0.59002129245881
H          -1.46978374851687    0.60774270671307    0.61011317502042
O           0.20120403601932   -1.07851710049241    2.86019973098928
H           0.52707534686408   -1.73541942610929    2.20082370454143
H           0.73268265508165    0.31652000705355    2.35318560570828
H          -0.75382597685959   -1.08447683333741    2.75433004729502
N          -1.19816785481062   -0.41168204940429   -2.72080116310421
H          -0.26214702948315   -0.77218820725266   -2.86039736705205
H          -1.54341964457323   -0.84286522783940   -1.87207657248156
H          -1.10943700084889    0.58147333146108   -2.53839605149581
