    26
        -50.44195684  Gyration_radius:  2.44526645067 Dipole_moment: 4.531
 S           0.77991022377826   -1.09281011029506    1.36525560080331
O           0.94321837028259   -0.88500745325668   -0.05316994039418
O           1.83014128666975   -0.49714498033004    2.15943930292028
O          -0.55208240899293   -0.66449997056980    1.83246600506405
O           0.84612999476683   -2.64718268215742    1.61980254610263
H           0.90488182132927   -2.72165366022371    2.56731988128354
O           0.68057833897894    2.47125576745432   -0.26484184904989
H           0.79471339800054    3.36480787093431    0.06405183288156
O          -2.25419337965091    0.33372035828408   -1.63347919785410
H          -2.80228598382219    0.85725125263403   -2.21986211416694
O           2.80595665373826    1.16225209337251    0.40249916343431
H           1.51320659896327    1.97174297817164    0.00327498324930
H           2.53416524528777    0.59829304680976    1.16441608167482
H           2.99088838666912    0.53859306669274   -0.30477799504313
O          -1.42624328958438    1.25427276174131    0.59734329692234
H          -1.86220557305938    0.86756086947332   -0.24703030705417
H          -1.06858304645740    0.39289160576101    1.18251486850603
H          -0.59678284599160    1.75192718519240    0.28662097234353
O           0.26668105914411    0.47609389122380   -2.26210503844240
H          -1.33750879730085    0.30275304964436   -2.02979702889817
H           0.52672048414908    1.34042414858288   -1.92032418022437
H           0.57879021117394   -0.16244006448788   -1.59420930024062
N          -1.62668795997031   -2.51046050142677   -0.24472051630199
H          -2.03205682576803   -1.78800296908163   -0.82884775784277
H          -0.62175182932076   -2.45979095628776   -0.35865424869388
H          -1.81560010301514   -2.25484658785064    0.71681490902578
