    26
        -50.45381460  Gyration_radius:  2.64790945642 Dipole_moment: 1.735
 S           0.79851476353914    0.05275348600190   -0.05210530034499
O          -0.51191336323522    0.51119059230258   -0.48037136759676
O           1.35435858855321   -0.91498013855232   -1.08977406630374
O           1.77053860369844    1.22079152008215   -0.07710965476670
O           0.80846116021754   -0.58096379410865    1.23664591602673
O          -1.25370018051497   -2.75334808100424   -2.74247475581141
H          -0.63600732023189   -3.46660381251255   -2.91169916814340
H          -1.31995513417493   -2.66739242814876   -1.75645473457805
O           1.21721468992292    0.82900627961463    3.47648599482093
H           0.99620015665677    0.21178123052409    2.75180988917653
H           2.05764580271092    0.53512035535186    3.83278808255657
O          -1.33542392521444    2.70596504348728    0.81646062793480
H          -1.63920859733416    3.32783439212054    0.15259831050230
H          -1.15030000302505    1.86798471091750    0.34904478739715
O           1.16663467277033    2.81889648541662    1.72007163185478
H           1.19597268604026    2.23386435803994    2.51396280844126
H           1.56663098039921    1.95515129366171    0.68317073900855
H           0.21154934770988    2.95008025426347    1.52102015080909
O          -0.11162840504380   -0.40023200956081   -3.04557027178197
H          -0.59861199201861   -1.26546992068121   -3.10345683982291
H          -0.65478667844673    0.17045045535701   -2.48637365859637
H           0.87032002772362   -0.71570870764666   -1.98827514126496
N          -1.22593145544193   -2.27780729082320   -0.08723362056817
H          -1.37593653291064   -1.27400293631284   -0.10884296722599
H          -0.30333712532188   -2.40204974570373    0.31455235996938
H          -1.89730076702840   -2.67231157207221    0.56113023829513
