    26
        -50.44195660  Gyration_radius:  2.44524747117 Dipole_moment: 4.533
 S          -0.72111492975417   -1.70861344091474    0.47605652453865
O          -0.50450086269040   -2.79306998238715   -0.45426289572229
O           0.46924631938068   -0.94132292556661    0.75245685725348
O          -1.83933452743729   -0.84893626885943    0.04443340210800
O          -1.18030955868203   -2.36320081251967    1.83480367422196
H          -1.85159969893002   -2.98597024151018    1.57353409986337
O          -0.18854916281883    2.75789476837434    0.47005510760520
H          -0.00590346272865    3.66917356926088    0.23644093833612
O           1.13500820588892    0.36555843336898   -2.28434863880729
H           1.14673921927500    0.34860303919046   -3.24309411536921
O           1.75412644344470   -2.01645797612159   -1.49762829300430
H           0.90406940504185   -2.42186506138163   -1.20533643584522
H           1.37532479285464   -0.56749010864419   -1.99047089321397
H           2.26814358525988   -1.92667938375452   -0.69072125814512
O           1.93280827882665    1.26004232773666    0.30536122969623
H           0.68952008294642    2.28714683074479    0.54512186323064
H           1.51357415105684    0.44614517209453    0.64168990433728
H           2.02509536258618    1.11784751075725   -0.64474270784985
O          -1.10701026412023    1.09888453418589   -1.23689416708817
H          -0.84637484418605    1.80814922020494   -0.54293009053114
H          -0.24129043381457    0.79897516770156   -1.67628765892943
H          -1.48070246547756    0.23346310686374   -0.66900537028528
N          -1.38303188983471    0.63625569626596    2.58652220165066
H          -1.06700160073613    1.49611046991538    2.15265519845746
H          -2.15801189557592    0.29224140432783    2.03276216803331
H          -0.63892021977188   -0.04288506933737    2.48382937545774
