    26
        -50.44195674  Gyration_radius:  2.44510163938 Dipole_moment: 4.537
 S          -0.40823094773058   -1.28443630873584    1.35991957647029
O           0.12030668322445   -1.02704308837175    2.67999269594307
O          -1.04133045062171   -0.13510510777256    0.75976077042088
O           0.61949553658587   -1.86792057527705    0.47715565982162
O          -1.51537134048575   -2.39461368606613    1.52356805011214
H          -1.09648341590507   -3.05736818624237    2.06389681157991
O           1.56992485305262    1.98534287735183    0.48620811579019
H           2.40303160599277    2.36389693292959    0.77299639690408
O           0.17255040835988    0.40081938469041   -2.76955664879170
H           0.46226939257414    0.90056168711721   -3.53421570977895
O          -0.89461602429992    1.92483967430247   -0.95047748739918
H          -0.12709863959671    2.33592201435015   -0.53408303276166
H          -0.36797834091180    1.01661305734801   -2.19778080852666
H          -1.15272368987459    1.20427608849251   -0.34595337357207
O           0.17117437948035    1.57789624894555    2.61996903861707
H           0.21944682862789    0.60568118700866    2.77805265440486
H           1.03581358558291    1.82957232109782    1.32600524922823
H          -0.74864333345118    1.73955084134032    2.39368569118843
O           1.77711586007883   -0.19596719441672   -0.87798146106773
H           1.18134746674288   -0.04270839963848   -1.69916019487976
H           1.72504844748879    0.65513676080279   -0.32550554192160
H           1.28574707886537   -0.98091594094618   -0.28314024274704
N          -1.54854178649828   -2.04584415830653   -1.55726832405819
H          -1.15057402486450   -1.36761075305075   -2.19689387651335
H          -0.78225805393590   -2.60771240611044   -1.20696373526808
H          -1.90942207848125   -1.53286329084356   -0.76223029319346
