    26
        -50.44195650  Gyration_radius:  2.44522154081 Dipole_moment: 4.531
 S          -0.57204135350002   -1.64262846939275   -0.80145416649064
O           0.04309600278417   -2.85556079881411   -0.31311681084289
O          -1.64209847054644   -1.18381558724541    0.10449059663043
O           0.37520308560373   -0.59281810883956   -1.08878000255844
O          -1.28626660922835   -2.00941136046972   -2.15805469392708
H          -1.78482945585617   -2.79362026576057   -1.95029396855857
O          -0.69822715633411    2.67690200455165    0.44614796455024
H          -0.58884782852080    3.51311578776893    0.90130255661844
O           1.65390253592372   -0.00343165275829    1.97610896863627
H           1.93008473381520   -0.26490827082369    2.85644077653606
O           2.36888667198127   -1.90708384732549    0.38216191406073
H           1.53763163720289   -2.39684462749849    0.17808996985865
H           2.62109409949430   -1.50251056400935   -0.45216938552600
H           1.93613147052247   -0.75345223705971    1.36578098305450
O          -0.87002242303510    0.47520383438104    1.72401561291036
H          -1.25870622199155   -0.27319073426383    1.01599633601297
H           0.11614473552792    0.26494325816053    1.84861570214951
H          -0.91202248138002    1.37880679840792    1.23991908143565
O           1.57754746211499    1.67977645335153   -0.32710031564630
H           1.20263786500558    0.91024263558755   -0.79452586814000
H           0.18302555683492    2.44158652494190    0.03842432026933
H           1.94527182116538    1.31992351911718    0.48943125624118
N          -2.11308627288948    0.97335345339216   -1.89744561360122
H          -2.66504366492971    0.34734316989680   -1.32375371245305
H          -1.81877615056288    1.73909275325109   -1.30207924366754
H          -1.28068957920199    0.45898633145313   -2.15815223755508
