    26
        -50.44195646  Gyration_radius:  2.44524719107 Dipole_moment: 4.531
 S           0.45075343116048   -1.58239220231413   -0.98028055111084
O           1.84063376571344   -1.97770840959924   -0.97701079203991
O          -0.22571904792502   -1.99687472327173    0.26346875824613
O           0.25223787064841   -0.18049485247194   -1.25806036070235
O          -0.24900546795485   -2.39026193028443   -2.13901000912671
H           0.03141727859961   -3.28867034828263   -1.99432959313070
O           1.77847163274297    1.23771799336258    1.39488843977962
H           2.44832051854019    1.27846607044986    2.07990871765058
O          -2.09591221554038    1.38923857038554    1.23706290274431
H          -2.42571976251009    2.06649417815478    1.82945545656864
O           2.95298003073137    0.36680938724665   -0.73537571469916
H           2.67306633770210   -0.57534997524491   -0.81572857095662
H           2.54452011786929    0.80441441391864   -1.48706642307945
H           2.24791933075385    0.89555173466077    0.57196777219856
O          -0.26513611239447   -0.23563137175808    1.95684450168276
H          -0.26534857780649   -1.05837610310330    1.22487914482895
H           0.55833511333701    0.32460080010574    1.75617996149989
H          -1.07476713478687    0.35215165934853    1.72959045101116
O          -0.23026316034897    2.29121642980733   -0.33685324962246
H           0.54227007459344    2.32634435525172    0.24055704157994
H          -0.12127876241141    1.47089200917801   -0.85298143590901
H          -1.51396718272923    1.84081906208596    0.56206268186061
N          -2.70065435323327   -0.88332455965677   -0.96862314622021
H          -2.81342341521363   -0.11971501304070   -0.31160943884189
H          -1.90894234030798   -0.65740584906798   -1.55813126266688
H          -2.43078797921444   -1.69851133585501   -0.43180527154766
