    26
        -50.44195659  Gyration_radius:  2.44527910623 Dipole_moment: 4.532
 S           1.79711330531045   -0.21429956500320    0.62689705362858
O           1.80628873938893   -0.37206385171580   -0.83984435933227
O           2.49516304577516    0.98538588296479    1.02877897208200
O           0.46361448535866   -0.31271069806467    1.16912086372390
O           2.62182055448455   -1.43185284076928    1.19475147697939
H           3.51817715795283   -1.24302725521900    0.93476398730776
O          -2.03959964425548   -1.19105740943291   -1.50825260010378
H          -2.87243745440567   -1.15255410285862   -1.98077790233281
O          -1.03046839422579    2.34645903614230   -0.27249566063355
H          -1.04214587829092    3.23671897009336   -0.62872643301557
O           0.46745458844498    2.41238150474174    1.83174431223564
H           0.09420299344609    1.79678234782211    2.46823049296494
H           1.31773500644820    1.99656106213390    1.55507298210812
H          -0.44275209675930    2.38547131937378    0.54465073413762
O          -0.19856006121387    0.52985354177906   -1.90678028689251
H          -0.50662007730858    1.26779958648421   -1.28009774878245
H           0.72268329806708    0.11602647014348   -1.46793847626535
H          -0.90477610861476   -0.21194275515096   -1.84607579816382
O          -2.17921036128123   -0.02833892509236    0.81554967407756
H          -2.21175043597222   -0.88019132826818   -0.57447921277996
H          -1.27487043836659   -0.25491041659078    1.10202663149318
H          -2.14141094829471    0.90961171041936    0.59132442431200
N           0.39991368941240   -2.95437319335553   -0.35248053642612
H           1.14198546474285   -2.60403144363367   -0.94612436568332
H           0.47532910704145   -2.45044848247084    0.52269835296983
H          -0.47687955689111   -2.68124917447506   -0.78153658762124
