    26
        -50.46212460  Gyration_radius:  2.51147357613 Dipole_moment: 6.138
 S          -1.25677747565528    0.00486941642103   -0.27663305733631
O          -2.01280984542110   -0.62320523642237    0.77130194129158
O          -2.23180346000458    0.42575946884554   -1.40008311279027
O          -0.53686516370851    1.20039188828678    0.17454831901075
O          -0.29010228594527   -0.93510374908163   -0.88491526309053
O           0.10724817202542   -3.01659736238418    0.75773539800214
H          -0.60400580092092   -3.65624751755778    0.81594054228530
H          -0.20214379874137   -2.33522042791497    0.12455230693044
O          -0.07065811521686    3.28733326371175   -1.34041816021288
H           0.78713245778658    3.61308332796035   -1.06356359092078
H          -0.31459183020798    2.58316455340549   -0.69582354864905
O           1.22896280568249    0.67918776622650    2.05082414514802
H           1.83659008260222   -0.23261874148584    1.07579261007336
H           0.56336718854196    1.07937985637887    1.44636620592238
O          -0.72558528275474    1.53859823441172   -3.22553945449016
H          -1.33013260877334    1.94779096949429   -3.84847723187503
H          -0.39826898780507    2.26317461150308   -2.64402949385167
H          -1.64071832121988    0.76418386961845   -2.11931826441765
O          -0.40903440921542   -1.21832428018729    2.82308784401888
H           0.68732198951548    0.04458543905940    2.58705095577384
H          -1.15068132378469   -0.92243604732228    2.25868056112766
H          -0.09604282133756   -2.02056642887756    2.37732733887444
N           2.02345539380739   -0.94978997932669    0.25154537948118
H           2.03465041310138   -1.90224335013370    0.61483607235342
H           2.86322874682683   -0.74528005741577   -0.27789588282393
H           1.13826428082832   -0.87386949720424   -0.35289254983757
