    26
        -50.46212479  Gyration_radius:  2.51217944216 Dipole_moment: 6.145
 S           0.32965525751797   -1.24354887749625    0.00249592220135
O           1.17544352016317   -1.55080680732817   -1.11742081912253
O           0.95057616553919   -0.23570610677859    0.88950318935404
O          -0.99945427884537   -0.76918523044880   -0.39707606414852
O           0.14897064390679   -2.52567692321116    0.84706253443391
O          -3.19419716971327   -1.23124217667302    0.95831645432772
H          -3.73058372518838   -0.44533857348967    0.84274697264925
H          -2.42457615037819   -1.12569110526268    0.35213487225966
O           2.90097621630194    1.05604988834779   -0.41959302255383
H           3.71389906180590    0.56930011172492   -0.56331978000310
H           2.30818369682585    0.44270834579219    0.06356704697102
O          -0.91229445671508    1.45471911179801   -1.79634658040098
H          -1.13759464711574    0.58766179340639   -1.38910576800377
H          -0.23614538461024    2.03312469520430   -0.62918986364264
O           1.38686677269230    0.58314430265693   -2.71098380083467
H          -0.13519352407919    1.23362943783920   -2.37134579861860
H           2.05684484798693    0.97980801153737   -2.13302622990901
H           1.28373112934198   -0.31942806906581   -2.34932904883345
O          -1.40722359282646   -1.82289705162773    2.82791727642863
H          -2.17111694101909   -1.57207649338229    2.25853020893851
H          -1.65645654586974   -2.63990533578532    3.26541951169359
H          -0.36779252730760   -2.22476042770506    1.63674815267620
N           0.37237395767469    2.20114585735163    0.28139802682348
H           1.29818981414713    2.54099170673769    0.02303100167855
H           0.51933698556292    1.21073397969183    0.67204964043363
H          -0.07241913578962    2.81324594617684    0.95581596520508
