    26
        -50.44195695  Gyration_radius:  2.4452705802 Dipole_moment: 4.528
 S           0.67650363907389   -1.36202534770820   -1.16397820311324
O           0.00706961532239   -0.34411606459007   -1.99585985172406
O           2.10279576248598   -1.37251434584568   -1.39611356970991
O           0.32145811655059   -1.23507040421137    0.22873278484368
O           0.12573747709603   -2.75303930672076   -1.66062671219567
H           0.51660561737215   -2.86032815872645   -2.52227292872851
O           1.55776102852356    1.82184344311284    0.94756034653812
H           2.18995325476145    2.53695078244683    0.85503092342440
O          -2.29674031897916    1.43135659635927    0.73069092137240
H          -2.73143035640352    2.16772306300434    1.16325812959074
O           2.91294517904426   -0.37681316206667    0.87219538770145
H           2.48422373558696   -0.99670741748547    1.46825556289604
H           2.75271928832335   -0.74801165902577   -0.02721070568898
H           2.09785652394067    0.97223052148676    0.91455731535114
O          -0.49491916981963    0.32770444269684    2.24923919158669
H          -1.74786370461904    0.96119752276292    1.42060348852157
H          -0.26674056712995   -0.39529539626434    1.63573915717162
H           0.24437582049510    0.94547161848128    2.19169463069703
O          -0.31111969811140    1.78120255376110   -0.83298470995948
H          -0.18284713145434    0.84307650430487   -1.39584950353837
H          -1.17689638478616    1.67618290808439   -0.29281324997388
H           0.44484162759397    1.81279234470075   -0.15521039636864
N          -2.53143010082930   -1.38150387640125   -0.83173062732176
H          -2.76148339979521   -0.54034497183960   -0.31499357621400
H          -2.17727872574378   -1.08747770204233   -1.73387550407792
H          -1.75609709849929   -1.82448447827050   -0.35403832106571
