    26
        -50.44195681  Gyration_radius:  2.44551235752 Dipole_moment: 4.528
 S           0.51743226251008   -1.50030304081106   -1.07269975902050
O           0.75309047049085   -1.84938120892817    0.34121407470979
O          -0.54719155644241   -2.29711591671361   -1.63807371713693
O           0.33074455089040   -0.08079286811461   -1.25115474697324
O           1.83705216232898   -1.89687254084625   -1.83835105632877
H           1.83296510436380   -2.84897094141269   -1.82404561998560
O          -2.48034272250973    0.44660143022170    0.53694626600293
H          -3.33672008946998    0.19425607410994    0.88702391408157
O           0.86259802865018    1.78214153999134    1.98552913959090
H           0.69357758869482    2.44358345355863    2.65803312151865
O          -0.45500924057246   -0.40132767172108    1.89470373197683
H          -1.26996036988009   -0.09471498890109    1.37141516365953
H           0.10251518593437   -1.08046125349365    1.22973680002034
H           0.13514031027892    0.42828902175420    2.01900421960386
O          -0.42694495622215    2.27643504431043   -0.22002976444858
H           0.47544529775921    2.12130527222828    1.12922571125199
H          -0.04918525292128    1.53810551045960   -0.73310749673822
H          -1.32733085984889    1.99878943376690   -0.01090660405931
O          -2.37679903957717   -0.45676323037809   -1.88163918886817
H          -1.87998356694000    0.17937184495069   -2.40306028114587
H          -1.79221048325525   -1.24955686088602   -1.83629220420378
H          -2.45183907112467    0.08751883556211   -0.40373518210149
N           2.99053869271613    0.11569195489018    0.22535374977444
H           2.57913395061711    0.78240559415548    0.86858920582783
H           2.81803613414589   -0.80721894427971    0.60505951115758
H           2.46524742930254    0.16898445649169   -0.63873899817273
