    26
        -50.44195647  Gyration_radius:  2.44514978713 Dipole_moment: 4.529
 S           0.07096520435914   -1.54144266933509   -1.13412348630830
O          -1.11411003157397   -2.36649123886929   -1.18856591817426
O          -0.06581438504795   -0.35180295036145   -1.99572295568891
O           0.46542970890833   -1.18953596823277    0.20841346012031
O           1.24456942683799   -2.38985836145469   -1.75691912468722
H           0.88192320543503   -2.71855956019234   -2.57370297014605
O           1.15368962236187    2.50201709209770    0.51176873287191
H           1.14315772069628    3.36827685751331    0.92148268395618
O          -2.18025285512981    0.64405719124508    1.21311310273766
H          -3.11216458325686    0.86981097679588    1.22848339774501
O          -2.04647904586687   -1.93629313352461    1.20699951508429
H          -1.27031711697413   -2.18413641928332    1.71646267104750
H          -2.14182498048073   -0.36247110501371    1.20895612767114
H          -1.82052843040293   -2.17923097524217    0.27838964441308
O          -0.85909671243205    1.61443128739827   -0.78078460828093
H          -0.50521711072940    0.75261665253356   -1.36756239752488
H          -1.40724190595895    1.23259777783076   -0.01523255711331
H          -0.02575547971374    2.03526821436423   -0.35533033004880
O           0.50241110710918    0.62019887093657    2.18672003048641
H          -0.45669429352876    0.70774545617449    2.24911161747052
H           0.64757601989837   -0.12299575426060    1.57206836415348
H           1.06012541020138    1.82570278977354    1.24125362467444
N           2.73705153289016    0.27603504030178   -1.20161904334002
H           2.51603829938438    1.11367218272878   -0.67541653428036
H           2.41283904875545   -0.51433000708495   -0.65779526588746
H           2.16972062421658    0.29471774321617   -2.04044779098443
