    26
        -50.44195689  Gyration_radius:  2.44529658615 Dipole_moment: 4.527
 S           0.40626166814037   -1.33164729159430   -1.31504438486562
O           1.79127082869957   -1.72480631671730   -1.43925885774151
O          -0.23966800628071   -2.00429014842535   -0.17189189457011
O           0.21576304087667    0.09796785860793   -1.27408827752198
O          -0.33378239293954   -1.86437090171155   -2.60089082159093
H          -0.05026851822098   -2.77081845836302   -2.66930691202137
O           1.82769395495403    0.89576111177198    1.58101648859095
H           2.51611511507866    0.78418764268528    2.23924690877015
O          -2.04797309000640    1.09276831954267    1.57120875331633
H          -2.35636476335121    1.62557185818269    2.30560463017268
O           2.93569634770415    0.50382853707402   -0.72022029485890
H           2.51207549587069    1.09739802085449   -1.34599688853692
H           2.27156773874814    0.73857099020433    0.69061156318330
H           2.64365613911858   -0.39641970230004   -0.99698144716739
O          -0.21466325364086   -0.65733197046984    1.86643476175279
H          -0.24302848684756   -1.29978524549948    0.97202946137659
H           0.60837362877447   -0.06981250155101    1.76951839158564
H          -1.02418012774628   -0.03123199425754    1.79663759184999
O          -0.21661205422837    2.30969641628405    0.17958725387993
H           0.57166515759843    2.21445312891301    0.72824188840797
H          -0.13003580690095    1.62189143027024   -0.50640800057617
H          -1.47967284235890    1.67871997155372    0.99506938000289
N          -2.73363404237501   -0.63823374511762   -1.06229754533999
H          -2.82046254455342   -0.03638970616018   -0.25129077989559
H          -1.96218628787048   -0.28608633155172   -1.61595482336401
H          -2.44760688823471   -1.54959098225602   -0.72557612482606
