    26
        -50.44195654  Gyration_radius:  2.44518260469 Dipole_moment: 4.530
 S           1.34082371910709   -1.32764862049045   -0.32749416526928
O           1.19327386968833   -1.18371470246364    1.13325317821797
O           0.88119400031784   -2.62242494842523   -0.77510768783567
O           0.73881805939403   -0.22628392045278   -1.03915231777696
O           2.89075642494214   -1.27291872820302   -0.60979532863331
H           3.21886681660090   -2.09067885507827   -0.24878564771142
O          -2.50359105671056   -0.58237081835483   -0.18191577899190
H          -3.27825866388384   -1.09668877663694    0.05260051743227
O          -0.54289282375547    2.40231619784441    1.33706513332505
H          -1.15115327394921    3.06097722577741    1.67555079575427
O          -1.10145212691393    1.72269859770557   -1.11187140482525
H          -0.33867632049035    1.12710386720893   -1.23299617609870
H          -1.86069333288435    1.13625819506569   -1.00658379638854
H          -0.71229216488498    2.31584529827213    0.35619765032358
O          -1.27956602847282   -1.89711312595974   -2.03913495645212
H          -2.03506068211994   -1.10564761719611   -0.90394667540111
H          -0.89320047173097   -1.25333358805149   -2.63886445053436
H          -0.50576785061778   -2.31342786307777   -1.59148420929307
O          -0.89409968014697   -0.08670995346467    1.77427192850247
H          -1.53735367542263   -0.31031301345923    1.02028048655179
H           0.05483783022139   -0.58895754035900    1.53024070811985
H          -0.71232782874767    0.92083370771808    1.70742313030671
N           2.49481837233842    1.47425459745048    0.78301972876498
H           2.30952023926337    1.07839403020188   -0.13049116463056
H           1.68477019572491    2.02613341044848    1.04116181523136
H           2.53870646325867    0.69341690383174    1.42655868736737
