    26
        -50.44195645  Gyration_radius:  2.44524588412 Dipole_moment: 4.533
 S          -1.75198859203113    0.50834464822325   -0.58363963609121
O          -1.70871616530975    0.63524844332569    0.88547409884146
O          -1.87908113800312    1.80079886879452   -1.21723430083750
O          -0.64885675550831   -0.27327235380758   -1.08768182031533
O          -3.07322246143676   -0.28840149341069   -0.90698241108946
H          -3.76933576771832    0.32466987001002   -0.69184380769116
O           1.42085741350256   -1.69162360755740    1.72410652297926
H           2.22112399352575   -1.94764985914124    2.18498685127841
O           1.97955710461868    1.63957262701567   -0.18596998526183
H           2.41218093313113    2.47723101788280   -0.01049303500273
O           0.56912412649970    0.71289368414824    1.76700956616915
H           1.11846021497859    1.10942342863593    1.00983286914509
H          -0.47282366477778    0.68670544825701    1.41233706137910
H           0.86739375171539   -0.26480535188479    1.85695047375461
O           0.49636148444104    1.99784158620480   -2.27091031389099
H           1.40382921243057    1.79297021794297   -0.99824278411258
H           0.50566534357014    1.17893837249688   -2.77358093862636
H          -0.42418725301881    2.06415969941724   -1.92345671254858
O           1.86692869252638   -1.14889040432449   -0.78134030168915
H           0.93527130586655   -0.99176916018143   -1.02332491957682
H           2.26592501874273   -0.27084963424694   -0.74505361733733
H           1.63466978113549   -1.66251393645931    0.74855563557269
N          -1.63376759001074   -2.34347027637878    0.92264133170755
H          -0.69397887421313   -2.42337643011927    1.29409513229344
H          -2.09001555082843   -1.59482722446662    1.42965657847186
H          -1.55137456382385   -2.02734818037785   -0.03589153752372
