    26
        -50.44195688  Gyration_radius:  2.44538964951 Dipole_moment: 4.526
 S          -0.57519623986873   -0.55988297283942   -1.73885074838739
O           0.41922370747988    0.51586144549628   -1.91351234142485
O          -0.06703681313254   -1.82495702745889   -2.21795138723253
O          -1.07390833270823   -0.61542116208573   -0.38614305671190
O          -1.78932828295949   -0.17700253609751   -2.66845872080602
H          -1.45309766954603   -0.30687794821088   -3.54980165898368
O           0.30078590291237    2.21521917022167    1.69130297009118
H           0.66183677828198    2.64042551175686    2.47051654848446
O           1.73664546587673   -1.37088381200883    1.32190909622427
H           2.59265160685057   -1.79045622864489    1.42596575383675
O           1.77645352033354    0.89364075878287    0.08273705758530
H           1.78879624586070   -0.00671571423711    0.55290375615904
H           1.19126692391325    0.75284395779810   -0.84033523568045
H           1.22626392063002    1.52130615101812    0.67890623224052
O           0.23730099732271   -3.05487949805673    0.05983341124322
H           1.16357819312103   -2.03558334499089    0.82763716624007
H          -0.65480217996234   -2.95610276940010    0.40300488209586
H           0.18623334377638   -2.71288395063005   -0.86360760770325
O          -0.67356104098201   -0.13855665318000    2.22268470946382
H          -1.02028582636606   -0.31484236738786    1.32836549573171
H           0.11629799403715   -0.68832485562136    2.29606153033473
H          -0.19621126684584    1.40421928593471    1.99697687142673
N          -1.68624170219771    2.33444341287804   -0.84677818464782
H          -1.20169328652791    2.56407603405782    0.01344378664088
H          -0.99319167424217    2.33168618105815   -1.58528652809521
H          -2.01278029505881    1.37964893185263   -0.76152378813473
