    26
        -50.45381414  Gyration_radius:  2.64817910363 Dipole_moment: 1.726
 S          -0.22576653186245    0.53082815866532   -0.55607002030051
O           0.67158944032571    0.17521204430135    0.52971605183855
O          -0.85053750460450   -0.59298186349939   -1.19591899556928
O          -1.30374113188106    1.46918711886755   -0.02776367824406
O           0.52823898335307    1.36978972403658   -1.57474890656503
O           2.98449871844501   -0.87321366951480   -0.32370213560121
H           2.14621069054729   -0.57106403938929    0.07746958672201
H           3.68885080011053   -0.41161560207671    0.13514101222826
O          -2.09237941606393    0.81126650033940    3.41240949614638
H          -2.00347992783192    0.02393547411135    2.81547272793761
H          -2.97137089468065    1.16464113050375    3.26623768478696
O           0.27059003914104   -1.79816845166876   -3.30835098301648
H          -0.21190596857502   -1.49408083314000   -2.51484541842653
H          -0.30815526606480   -1.63260502232077   -4.05483755092851
O           2.19193636793416   -0.05915951168277   -2.73213037844352
H           2.65438856765372   -0.44827761347048   -1.95523134645828
H           1.61526065583501   -0.77681779556551   -3.08681709605098
H           1.26804100044295    0.80802689613437   -2.11843086983550
O          -0.27367049087970    2.21184704859610    2.12320265351591
H          -0.91556920002671    1.78732658580878    2.75332010693579
H           0.44017218183301    1.57211960361120    2.00318887707666
H          -0.93023835737968    1.91545892679476    0.83404027866075
N          -1.69429041854109   -1.13543336136660    1.58841924378692
H          -2.13928837961912   -0.92876049669847    0.70105402657725
H          -1.83814874173916   -2.11990094280807    1.78064876048105
H          -0.70123520585523   -0.99756001855180    1.42852687277423
