    26
        -50.44195658  Gyration_radius:  2.44521402354 Dipole_moment: 4.530
 S           1.43881849771734    1.22975379678068    0.29186331435119
O           0.49480855216253    1.85342054766788   -0.65481658442364
O           1.45222319469542    1.93005406352878    1.55576596879725
O           1.20936375148754   -0.18871050379044    0.42285741394937
O           2.86927114716855    1.41325574170490   -0.34468123512932
H           3.03382474522436    2.34845541899870   -0.27376341121441
O          -1.90290937170606   -0.23508282538389    1.72171214625579
H          -2.61442186016959    0.11752673216046    2.25933337087391
O          -1.45787986008380   -1.37013530008901   -1.96255303942028
H          -2.22170408862743   -1.87278398128532   -2.24936941730525
O          -1.70787508001152    0.79543585456245   -0.63679261847005
H          -1.79830510166150    0.41906470285774    0.30261038893873
H          -0.73222046234353    1.30443616908573   -0.67330391802725
H          -1.63471825348231   -0.01293283961540   -1.26436508137730
O           0.28153366034488    0.14310356906159    3.04875357504607
H           0.85894363268723   -0.60367900785717    2.86908199064749
H           0.72120160144312    0.90736969079936    2.60714954472391
H          -1.05831543036896   -0.07993174057532    2.24828018103938
O          -0.49155461683485   -2.25690567248472    0.28487051290514
H          -1.11077317098386   -1.91049772334108    0.93909315215191
H          -1.04701721913526   -1.86270906694466   -1.19652383737284
H           0.27290451402409   -1.65208017899088    0.31737716531010
N           1.46345042809248   -0.17102361338843   -2.61555435353765
H           1.85955440497358   -0.38085790828041   -1.70750340357190
H           0.58947019710289   -0.67950527176413   -2.68666592594098
H           1.23232618826693    0.81495935659304   -2.60285588914782
