    26
        -50.44721136  Gyration_radius:  2.51035073164 Dipole_moment: 3.938
 S          -0.53010500563460   -1.74328170086593    1.09970513646572
O           0.73189045925499   -1.46939034593214    1.81157413041624
O          -1.32165737798005   -0.52757214101158    0.98792629927844
O          -0.33748803658544   -2.42314611683386   -0.14885407000281
O          -1.32195962217302   -2.71177748996122    2.06347392203477
H          -1.25357597546135   -2.24052940909817    2.88696093589979
O           1.39442791588588    0.65718432311427   -1.53113993939748
H           2.02626154751906    0.77593388957634   -2.24191635936035
O           1.90584346855324    2.09730202164364    1.86967360369564
H           2.34380588642839    2.91005656587976    1.61212303000667
O           2.41838607512776   -0.10020986864349    0.68513999846960
H           1.70608337505380   -0.76760113814080    1.17155747977805
H           2.03029477335257    0.13490705210566   -0.23456166474243
H           2.34684891085817    0.76229932233749    1.23578522169861
O          -0.33916186792696   -0.97160962238293   -2.37266878228226
H           0.69570458110951   -0.01127218240519   -1.89408932087767
H          -0.32504747404509   -1.65451540859316   -1.67168923251145
H          -1.20661219926989   -0.51479820487020   -2.24311199057210
O          -0.25393214435631    1.85223596454441    0.43023589285615
H           0.14503601847245    1.63644190682232   -0.42366169018391
H          -0.71487991470611    1.03470589179214    0.71141553868480
H           1.00087738081229    2.11215857326704    1.44926774062444
N          -2.59636222446339    0.21633777538372   -1.50085810585293
H          -2.32892224067488   -0.07051085203090   -0.55933699414484
H          -3.49356953732790   -0.20430436744646   -1.70633908597095
H          -2.72218676183854    1.22095556177686   -1.48661170401027
