    26
        -50.44195643  Gyration_radius:  2.44517680178 Dipole_moment: 4.530
 S           0.84125183535628   -1.71892189500425   -0.06952149644684
O           2.20185813816739   -1.75987367034730   -0.55441546913847
O           0.78971049002198   -1.29725705820712    1.34321119056882
O          -0.04070531272073   -0.93222214191763   -0.89728410284951
O           0.30461633425305   -3.20094824093826   -0.09490328129587
H           0.99044805230379   -3.70083974122783    0.33690327419492
O           1.31899045796268    2.13717755343956   -0.57724740657003
H           2.05269955780272    2.74363960084726   -0.46104038651562
O          -2.08060352244807    1.46782102181512    1.16983561480897
H          -2.51060047037361    2.29611868919502    1.38756659912757
O           0.40680374763791    1.10204601238442    1.60430383550799
H          -0.60922799841955    1.23107082738379    1.54355190833107
H           0.58564529854577    0.01799911038747    1.53235240673930
H           0.79649077162765    1.51233989176653    0.76045340973441
O          -1.33027043271676    1.38046266986876   -1.32020776556297
H          -0.53595232331431    1.92861611331645   -1.32672524905494
H          -1.00192707401556    0.46232619840656   -1.29940329188714
H          -1.97333206491123    1.43926245217920    0.17687927767912
O           2.14183302161818    0.28060235875738   -2.17467446802235
H           1.39401407179684    0.01820068379529   -2.71809991248081
H           1.65278723772902    1.41854389986747   -1.19923430431227
H           2.31218937734599   -0.49920697800521   -1.59556743095857
N          -2.14831858993065   -1.75612341542237    1.14657056048364
H          -2.41709759582098   -0.78456285046186    1.25288564119029
H          -1.73939049132023   -1.85521007922640    0.22551490594585
H          -1.40191251617057   -1.93106101265793    1.80829593079071
