    26
        -50.44195653  Gyration_radius:  2.44522171119 Dipole_moment: 4.532
 S           0.91960276972748   -1.09682904406022   -1.27261625213824
O          -0.14573630803954   -0.36881610104339   -1.98768283946958
O           2.22928262163391   -0.65210525070243   -1.69097399088962
O           0.72911201528616   -1.05932747751477    0.15713871520435
O           0.78599593788559   -2.60225103896127   -1.72074868988037
H           1.06246865647752   -2.59578443097130   -2.63192351216395
O           0.99993455865083    2.24690752741451    0.77045448619475
H           1.35006843562411    3.12481490231464    0.60829119837087
O          -2.51579516600966    0.63031457124294    1.06105471317108
H          -3.10186170805834    1.19852444415354    1.56308660535430
O          -0.97511590476437    1.56499602667509   -0.74512890525199
H          -0.62746210815974    0.70672712515106   -1.34079866166455
H          -1.68075308913101    1.19853303062791   -0.09669918201734
H          -0.18641299212141    1.85397116906994   -0.17356937129376
O          -0.26956460939303    0.20143671464898    2.30263123525405
H           0.09568360282054   -0.42283195048183    1.64833258061617
H           0.21672406790558    1.02298685615368    2.16109241151122
H          -1.75834224155605    0.37773255759596    1.66166866040176
O           2.96821424569963    0.59992971052216    0.47211256754040
H           1.77534376336633    1.61543374850459    0.64920518339422
H           2.84482018977532   -0.11155276660255    1.10611693231340
H           2.81849879117945    0.17704686440298   -0.40607930828034
N          -2.04057414140610   -2.13989714961384   -0.51923866176246
H          -1.93031566392705   -1.76883499581815   -1.45509391539750
H          -1.10505640463261   -2.29381782411788   -0.16345891597824
H          -2.45875932883790   -1.40730722859104    0.04282689686508
