    26
        -50.44195654  Gyration_radius:  2.44522594101 Dipole_moment: 4.530
 S          -0.02902167479835   -1.50240037335244   -1.18737344355557
O          -0.26828821842927   -0.28707218886428   -1.98862543706526
O           1.24507479648023   -2.10162263154163   -1.51269291226660
O          -0.20630666801142   -1.25874763291054    0.22366335875544
O          -1.14025679177704   -2.53100484922565   -1.62561779984442
H          -0.89380305313697   -2.77085464642730   -2.51355654953556
O          -1.43896179524205    2.24430127217579    0.86390360516448
H          -1.49590331272793    3.08850159907786    1.31382142230068
O           2.23379097962997    0.99306576097558    0.81488478140861
H           3.09843993263748    1.38087787175623    0.66782333956203
O          -0.16219227353467    0.46885489873978    2.27415359410252
H          -0.29662656126932   -0.27374569261117    1.65635936979078
H           0.76142403538612    0.72406205989759    2.15919717105906
H          -1.09084965249431    1.57810136297385    1.52215225391611
O           0.40238399868524    1.75976648867069   -0.83458173092896
H           0.09169642289681    0.86270006091839   -1.39232311392776
H          -0.39045620141548    2.01567163471695   -0.23588363771730
H           1.14668130261175    1.46366319850529   -0.20960229744243
O           2.54263062126664   -1.56896094670109    0.68409912198649
H           2.36723743062336   -0.00379969854081    0.75940103881636
H           1.93542056937408   -1.96314787540394    1.31601246943523
H           2.18341077892625   -1.82620500168462   -0.19751851432161
N          -2.92590396230089   -0.18765192659764   -0.64382664161645
H          -2.75152734147798    0.66411270480657   -0.12280881552854
H          -2.54784726118273   -0.04922889900834   -1.57317510336310
H          -2.37024610057749   -0.91923654041646   -0.21788554852078
