    26
        -50.45381458  Gyration_radius:  2.64771009342 Dipole_moment: 1.729
 S           0.42898062596392    0.66342194645682    0.14591824753702
O           0.13191625401091    1.75595863056165   -0.87382590103399
O           1.55309067381920   -0.10879776261751   -0.30433808021974
O           0.78172912280298    1.42536204907886    1.41270354161239
O          -0.77563813734464   -0.11565182830973    0.37547221035429
O          -2.37625436715306    0.74257093304248   -3.23624457888453
H          -2.00134572859439    1.34685543983784   -3.87908208267269
H          -1.66697767456041    0.08187404692252   -3.02488647097403
O          -0.66411508644681   -1.59783506930203    2.60389770611959
H          -1.47627119201522   -1.43880482363336    3.08851202886437
H          -0.76290483399217   -1.15053074126304    1.74065063006143
O           3.28146690869689   -1.19146981964077    1.43121227246677
H           2.69806489871027   -0.90795042636900    0.70029131115226
H           4.11932921287045   -0.74533099915073    1.29471527031302
O           1.52486573861491   -0.18296711593504    3.14750458067741
H           1.11667802704341    0.78471618306174    2.21044884554574
H           0.77083208371569   -0.81562639176803    3.13082745199607
H           2.26570919022993   -0.63845974451851    2.68165875670596
O          -2.36511653207132    1.78711649204617   -0.81942839663290
H          -2.54167248165617    1.45353335179962   -1.73963754807755
H          -2.36200908586296    1.00515607375269   -0.25206056396548
H          -0.89491322283084    1.92007819286167   -0.86089478405084
N          -0.38866643661876   -0.87786267913993   -2.40076701966565
H          -0.21738204371369   -1.79963573550173   -2.78511491144455
H          -0.68189414541017   -0.99899065013483   -1.43641942402334
H           0.50249822179144   -0.39672954212343   -2.35111307177028
