    26
        -50.44195657  Gyration_radius:  2.44525342091 Dipole_moment: 4.531
 S           0.25079098053173   -0.76047341102981   -1.73994154587535
O           0.96610451663593    0.04188744096348   -2.70566439563230
O           1.17915425758928   -1.43431856865333   -0.81238440989440
O          -0.77721667058260   -0.03258798939511   -1.03620563399922
O          -0.46265961856291   -1.91253956768638   -2.54535313345673
H           0.22568308159744   -2.26414919660507   -3.10146103378850
O           1.05675103062292    2.26944055410971    0.61165287619308
H           1.80263435036441    2.86426574151560    0.70881208366575
O          -0.54659432657805   -0.59291672034488    2.68397483981967
H          -0.57132851514003   -0.35676623888379    3.61240113523217
O           1.52943788175475   -0.18450130597146    1.25800710319289
H           0.75063597186611   -0.44140715008634    1.87445682007630
H           1.40430383221351   -0.77739107329342    0.33853198128812
H           1.37648535122599    0.78497922970704    0.99549052026717
O          -1.55646540836482    1.27043314485049    1.17422527965956
H          -1.47764929705403    0.78096402208034    0.33434137381839
H          -1.09294031608860    0.08198652935010    2.18974741340700
H          -0.85284949870003    1.93036712215527    1.14454583051794
O           0.31101446047043    2.41773928748233   -1.85774774590960
H          -0.64519000439264    2.32387666509359   -1.87404626486580
H           0.77739821408297    2.33502295503379   -0.35390972719380
H           0.64766674752543    1.59155591299522   -2.27783633143442
N          -1.25257708871867   -2.70509163773175    0.35223964131917
H          -0.31138594320131   -2.97912142953306    0.09771972934181
H          -1.19374933465276   -2.24361365829753    1.25279042020746
H          -1.53745465443914   -2.00764062783084   -0.32438682596222
