    26
        -50.44195681  Gyration_radius:  2.44540161888 Dipole_moment: 4.525
 S           1.56432088691585   -0.19991474585366    1.08675125219611
O           1.40449207688838   -0.90755298848569    2.33649092597037
O           1.67597603881687   -1.13699598770425   -0.04727525834490
O           0.55018058172022    0.80054700390252    0.85847820090317
O           2.94961537498345    0.54846634149573    1.16291042095080
H           3.55488759405758   -0.12056435002969    1.46746194531062
O          -2.22761423868920   -1.10742663688788    0.67422998142760
H          -2.76726484245412   -1.86467501683344    0.90872637393248
O          -0.91074894501495    0.49936331230461   -2.60353912727420
H          -1.59679495686861    0.50186255707193   -3.27263050135872
O          -1.73606612631866    1.50897910747228   -0.35144328528886
H          -1.24201065420873    1.04427664513665   -1.83449452920056
H          -2.26432713764709    0.79448799218755    0.02530225364364
H          -0.87801677507842    1.45707973417115    0.10916295281150
O          -0.46147268275698   -1.55314699703893   -1.15521924450192
H           0.52154014402550   -1.39810836571383   -0.68195933717911
H          -1.15471908802381   -1.41065992746593   -0.42648384287545
H          -0.58412034631182   -0.78371771937166   -1.82226774235251
O          -1.08121050574979   -0.31527754673272    2.85025237901986
H          -0.14859386646434   -0.62756691686634    2.77891588541091
H          -1.01840455114914    0.64266892342151    2.80855209595078
H          -1.78562387111081   -0.81033186062544    1.52915771240968
N           2.08983970062941    1.29007130881266   -1.72575911252276
H           1.22662473142850    1.20427554147720   -2.25016334639685
H           1.84359072728826    1.58585284941635   -0.78899030571991
H           2.47592072107783    0.35800772271753   -1.63616670694443
