    26
        -50.44195687  Gyration_radius:  2.44542219763 Dipole_moment: 4.530
 S           1.19017509993655   -0.34214818464212   -1.46123921960059
O           2.59623731960949   -0.44843195346837   -1.14529129061332
O           0.47679783824949   -1.59573768725600   -1.15104780479940
O           0.55037416242654    0.80264643652194   -0.85970816022774
O           1.08830049536961   -0.16592293201970   -3.02441761091571
H           1.65410159701261   -0.84972578740638   -3.36936510080085
O           0.87335810582637    0.08368047204210    2.42391573448524
H           1.32662428130077   -0.29085988710684    3.18148579154144
O          -2.66460990156761   -0.17839710354600    0.85156580504007
H          -3.33529808913187   -0.17031832037422    1.53601206508888
O           2.69166454246755    1.13784135390456    0.92079973996125
H           2.80197925977470    0.50854790697648    0.16974349374439
H           2.31108275311311    1.92476822028870    0.52165155144991
H           1.59252717459295    0.48849879817353    1.84648681674097
O          -0.54917763310984   -1.58915442587634    1.06629915652736
H           0.03088225519320   -0.95705876289688    1.61020351529274
H          -1.45484933235346   -1.12127946187850    0.95227066172703
H          -0.09784230151254   -1.63660038069892    0.06211312631816
O          -0.98695327780660    1.79516208915795    1.10114402939298
H          -0.48115351059991    1.60897815908008    0.28835592603295
H          -2.16685497112103    0.68579524241606    0.91123639932981
H          -0.41557943983193    1.50348925313141    1.82222157961632
N          -1.92720768487041   -0.25139949257526   -2.28772056709562
H          -1.48568151215642   -1.16233753115217   -2.32249636472012
H          -2.44286211898846   -0.20526667011347   -1.41623461292250
H          -1.17603509184205    0.42523068928714   -2.22798466062290
