    26
        -50.44195683  Gyration_radius:  2.44535280214 Dipole_moment: 4.526
 S           0.56453580371622   -1.60759001485518   -0.87494238861163
O           0.61944647906324   -0.51045552171172   -1.85977680483020
O           1.88812635020745   -2.09294250761639   -0.55785876514304
O          -0.20988445350051   -1.24701100523835    0.28775186399941
O          -0.19305983067482   -2.78991692741078   -1.59126268031615
H           0.42469583329790   -3.09306704220711   -2.24944484662434
O          -1.79580070395262    2.14978328774502   -0.12873849891483
H          -2.08796386132516    3.02294931257420    0.13691756088215
O           1.61290887976773    1.30865105002199    1.52525578328745
H           2.43327524595409    1.77322419541550    1.70076262289901
O           2.09611546302052   -1.20432165541151    1.88359256867856
H           1.81515835663596    0.33203159872658    1.66621618920846
H           1.30136385950384   -1.59799672407444    2.25343209098919
H           2.16177893048042   -1.58587942690259    0.97670384358682
O          -1.14133004180539    0.67347063462375    1.91171994982171
H          -1.72348115579672    1.59463451280812    0.69877771048606
H          -0.95773556051636   -0.13767137637833    1.40234383464292
H          -0.27261310689858    1.01533402965640    2.15660726702559
O           0.61826335607568    1.70252898740660   -0.82436580537124
H           0.62607026711807    0.72447939793127   -1.33216931993098
H          -0.36702828464966    1.92895463441671   -0.65079919810679
H           1.04072689671065    1.55367138621384    0.08736649051769
N          -2.35781300937149   -0.57221488886116   -1.76636321680998
H          -2.47051288092810    0.34109283123067   -1.34125131923714
H          -1.62406469886734   -0.48767829308483   -2.45942499082200
H          -2.00117811320410   -1.19406048498502   -1.05104995129874
