    26
        -50.44721165  Gyration_radius:  2.51035292555 Dipole_moment: 3.933
 S          -1.09959402107977    1.40470621617308   -1.15799194835974
O          -0.60015915764060    0.60477448430098   -2.29148402433816
O          -1.64143006881607    0.53461235712939   -0.12525248859142
O          -0.13904621358295    2.35161433431785   -0.66910164881686
O          -2.31853552759204    2.21245732131017   -1.75418792222135
H          -2.80374340790344    1.51463665976439   -2.18139073426804
O           2.04768811417484   -0.51123751955047    0.51545475893714
H           2.98813341979182   -0.57412641859362    0.68902060378560
O           0.22754906778176   -2.99051402519147   -1.59332415925756
H           0.71982823612195   -3.77472418663841   -1.34610122055420
O           1.28424347128066    1.69432709904773    1.47434886776547
H           0.53427951771681    1.46836790749079    2.07790606133322
H           1.75526219246292    0.39556269912382    0.91396865540679
H           0.84835935938678    2.10470713716437    0.70005021432751
O          -0.48691223889856   -1.76087661714223    0.59149936162260
H          -1.01341812892154   -0.97440461905469    0.33819275515504
H          -0.19073060329144   -2.63780584338532   -0.75853212851891
H           0.37088258540959   -1.41181456898205    0.86927738575621
O           1.40342588297973   -0.75710013067205   -1.94599266679592
H           0.98565333724417   -1.69385971988175   -1.94362112303610
H           0.55158422096464   -0.10371101480840   -2.13533335415103
H           1.69914826405787   -0.59244647972744   -0.97786954455771
N          -1.01433808832391    0.94780645363719    2.66839579921201
H          -1.13188959190689    0.05913756432885    3.13914906563350
H          -1.41425069712588    0.85323394207652    1.73493554494187
H          -1.56198995428770    1.63667695776420    3.16798391958899
