    26
        -50.44195658  Gyration_radius:  2.44525205609 Dipole_moment: 4.531
 S          -1.28781061423974    1.10464856164778    0.88882869692502
O          -1.33984368979569    1.41717724721238   -0.55197569840880
O          -2.50503843469868    0.46267235545297    1.32963704329194
O          -0.09352499061439    0.37356251620647    1.23673783579745
O          -1.21425206761057    2.49536716673403    1.62737821563272
H          -2.07720781838092    2.87389887022598    1.49044119675282
O          -0.52178713300735   -2.46712476601950   -0.53070631204960
H          -1.05324677901737   -3.15985011826246   -0.92733995644585
O           2.20697709266112    0.01896373144154   -1.72728368389562
H           2.82131195373257   -0.42132614339314   -2.31641964073068
O          -0.31386564986912   -0.31374331435263   -1.93867724133748
H          -0.79012249114110    0.48745393095617   -1.35242624352599
H           0.69119508543036   -0.10778163396049   -1.94469981646057
H          -0.42601959471645   -1.16728534887526   -1.39911102871754
O          -1.59014843270505   -1.93912456507492    1.76193828574165
H          -0.87645017093168   -1.72067372390167    2.36718665791350
H          -2.07229545679766   -1.08894211997522    1.63115429070746
H          -0.94904593478151   -2.26939162021754    0.35977161638284
O           1.86998892895725   -1.29466771184627    0.49347634336210
H           1.28403380392563   -2.01565857253992    0.23225476352901
H           2.25528843875654   -0.44560705172955   -0.84405609228410
H           1.28688447215431   -0.63795405083524    0.91767417916086
N           1.32524470806107    2.68914037905651   -0.14933924028415
H           1.05776034596270    2.21299016557509    0.70341055405648
H           1.84719743129425    2.02706961427661   -0.71203661459624
H           0.46477699737369    2.88618620220644   -0.64581812049267
