    26
        -50.44195675  Gyration_radius:  2.44534085 Dipole_moment: 4.526
 S          -1.79318975569046    0.58565668528652   -0.33107467863247
O          -2.31713045716002    0.36231554070257   -1.65906497004044
O          -1.85905296320965   -0.64314592511474    0.48279250907637
O          -0.47151513354335    1.16415571290623   -0.32385565458239
O          -2.75759090846876    1.61683472019816    0.36994705213016
H          -3.62740949427042    1.26784391608818    0.20157664770747
O           1.82616792042101   -0.71162573113796    2.00424758404570
H           2.64457941902486   -1.11514745026935    2.29704284554295
O           1.32435302487201   -1.28286024193279   -1.80112034022013
H           1.44532210899208   -2.00801847822719   -2.41686521614659
O          -0.09932764264559    0.49434268494986   -3.02206923821534
H           0.20571564434620    1.35643571272279   -2.72683666966200
H           0.76717454359958   -0.59939537961396   -2.28805931174073
H          -1.00374014272348    0.40765749826899   -2.63890802056423
O           2.17629242444124    0.81921294649199   -0.07091031080882
H           2.25574133523321    0.18639008873409   -0.79529611175576
H           1.25787351594586    1.14352409397104   -0.12002964984411
H           2.06152105076070   -0.02041245746000    1.32239383663998
O           0.21821394315614   -1.92861315948010    0.44033727510424
H           0.63707243569577   -1.70072947596635   -0.45663232931047
H           0.82161100934487   -1.50673196347736    1.15443409298486
H          -0.73859242396973   -1.38320460713525    0.48272758803197
N          -0.79578545538227    1.03355009047391    2.70381779395893
H          -0.78044829289228    1.58285504531686    1.85312188163937
H          -1.49717946727530    0.31622614390064    2.56484617183870
H           0.09932374136754    0.56288399981691    2.77343721286345
