    26
        -50.44195652  Gyration_radius:  2.44517614212 Dipole_moment: 4.530
 S           0.00662459996356   -1.37110375223887   -1.33704553203679
O           1.35341676285440   -1.31739084150361   -0.73744113229166
O          -0.66465556056845   -2.60743781770043   -1.00697905897846
O          -0.76792959828998   -0.19479403737861   -1.02352180211703
O           0.23134729675192   -1.37834127962863   -2.89733058261319
H           0.61121590686159   -2.23412527125052   -3.07059431294307
O           1.28543213794412    2.33263702126264    0.87195328268222
H           1.46667328299265    2.99777897659156    1.53761125741291
O          -1.00680656889512   -0.43749523069964    2.33132594380950
H          -1.07010430323928   -0.92504525235289    3.15466748761565
O           1.38961721558250   -0.15842006097793    1.41358776076787
H           0.45612591957961   -0.29732946875293    1.78984425035863
H           1.41763510764092   -0.69195230028498    0.45089634065766
H           1.46408518302822    0.84054083665264    1.19177878743316
O          -2.48269834736639   -1.68745161345929    0.61815805508765
H          -1.84889511769968   -2.17269851347962    0.03907904406725
H          -1.58399219580365   -0.93522996305145    1.67261891623284
H          -2.87635300054947   -1.02586914996134    0.04307642664482
O          -1.26082441228709    1.84821836230153    0.64193602329955
H          -1.18274279653328    1.22317789199399   -0.10264956118337
H          -1.44691919712535    1.29633090051123    1.41151524283686
H           0.29751688321354    2.32077855406199    0.72303661138683
N           1.64306063594511    1.28687636291770   -2.15784728883126
H           0.68922049188563    0.96281096725905   -2.26085004439192
H           1.67640112854184    1.86174771968644   -1.32369334782696
H           2.20354856556739    0.46378694947878   -1.97313276706803
