    26
        -50.44195679  Gyration_radius:  2.44538198461 Dipole_moment: 4.523
 S          -0.01575515003000    1.57385516267856    1.09109984921796
O          -0.38503286418063    0.42720807080566    1.94292366575606
O           1.26811962333432    2.11658394667795    1.47211766706601
O          -0.11095736233582    1.25264736799497   -0.31222682307084
O          -1.08706204103679    2.69149570528809    1.38783096591570
H          -0.88048554714125    2.97783315938590    2.27214961130575
O           2.21630417655036   -1.17462900040685   -0.59244873659021
H           3.04237776330158   -1.60402299176796   -0.36253600951194
O          -1.51736641967707   -2.20603104369071   -0.82994888824896
H          -1.59937307060888   -3.07175555145460   -1.23262234693066
O          -0.03627106858926   -0.60288030822880   -2.24731458666983
H           0.85908340665806   -0.90451984565625   -2.05026233341288
H          -1.08310872678384   -1.60528357583290   -1.49971418932522
H          -0.16539950467299    0.18442934947240   -1.68646875071427
O           2.67900017345079    1.36758079766096   -0.58752006379268
H           2.14418276518078    1.75701044650087   -1.28439814921630
H           2.27678875932478    1.70135413455725    0.24863730616134
H           2.40954834352518   -0.18613812406279   -0.58495688722682
O           0.23198014981372   -1.72493907804461    0.96471069512291
H          -0.53299000855168   -1.97112007765666    0.32741025063868
H           1.03405021130540   -1.51411848744456    0.37810678022836
H          -0.05854509087473   -0.77626635836423    1.44444647329856
N          -2.94501754417449    0.40266090586058    0.41792912655256
H          -2.78893266884538   -0.48920741380818   -0.03781395809773
H          -2.63234168285488    0.30432809974383    1.37622875847201
H          -2.32279662208845    1.07392471980011   -0.01535942690232
