    26
        -50.44195659  Gyration_radius:  2.44520491041 Dipole_moment: 4.531
 S          -1.46361536866599   -1.23535655774897    0.01788282441789
O          -1.19640889931127   -2.57067778299488   -0.46528515669537
O          -0.99640027449925   -1.06599125572174    1.40689001326485
O          -0.95823046747380   -0.19834804548801   -0.84872991081241
O          -3.03107026422457   -1.07590533448304    0.06971730511952
H          -3.32654460661582   -1.85901630253667    0.52378112921239
O           2.36299191447216   -0.76545026489239   -0.68670998097804
H           3.13512678047996   -1.32789522159873   -0.60246871348746
O           0.97292170096041    2.38932805342686    1.09477560538311
H           1.68117757871425    3.01072374068002    1.26971419906042
O           1.24687316048061   -0.10694858304950    1.54566822172988
H           1.12103660126338    0.90911006615247    1.47912643620489
H           0.23693577300456   -0.54536109405075    1.52889820143900
H           1.69733658091520   -0.39491072765550    0.68171393516697
O           0.68530507909192   -2.03458483017570   -2.18700774027826
H           0.00031573677886   -2.38291803311363   -1.56904524033500
H           0.22187074573697   -1.37965165771772   -2.71582941009780
H           1.71726473409008   -1.27157065018424   -1.27108601937126
O           0.94646403133467    1.61045814176524   -1.38789176053344
H           0.92146411690379    2.26648502447419    0.10456220594961
H           1.67071446545082    0.97353736547513   -1.42299287728278
H           0.13828024449429    1.06870479649603   -1.32037728525821
N          -2.16691178906449    1.66967860892059    1.23559821307197
H          -1.28584189253577    2.16743339793424    1.29413984722363
H          -2.20767835464592    1.23845443566361    0.32026731233921
H          -2.12337733713298    0.91067270043742    1.90468861552417
