    26
        -50.44195642  Gyration_radius:  2.44521392998 Dipole_moment: 4.530
 S          -0.40151080407694   -1.86297834552462    0.18819022011520
O           0.21423379891981   -1.66434757321782   -1.13759801378413
O           0.46111052151663   -2.63112898665020    1.05642532742254
O          -0.83960729506539   -0.61686439873146    0.76881306128138
O          -1.68889913960375   -2.73734657114875   -0.06314075323264
H          -1.34294047254855   -3.59105032301684   -0.30443457753071
O          -0.36505568785727    2.25191538182714   -1.62705260989937
H          -0.13737252184252    3.14185733629586   -1.90007242642415
O           2.09169730547762    1.01626753047690    1.11056525272296
H           3.03650948074307    1.06145521825882    1.26831040876716
O           1.41871534936983    0.45419857298534   -1.31725498307603
H           1.71275236203486    0.65799298222361   -0.36633763505959
H           0.89217124956672   -0.51207441523733   -1.27782394203578
H           0.71148043714644    1.15803771937728   -1.55630448757668
O           1.15582853028734   -0.76198301171247    2.73456279037482
H           1.74008930004786    0.31950861739156    1.74750730752000
H           0.28080143625482   -0.47094187397798    3.00472802128177
H           0.99014049633033   -1.55751498245260    2.17588508853960
O          -0.56607568078034    2.04384001932688    0.95892805852617
H           0.35484482855694    2.02102585896345    1.24678361567708
H          -0.58631948014019    2.28593695041284   -0.65332278719217
H          -0.85528240227630    1.11245576847110    0.96767490036916
N          -2.32860059744138   -0.29473055910446   -1.87272131936877
H          -2.34244432317879   -0.50297578588702   -0.88180556326821
H          -1.92659230812354    0.62965472541407   -1.97960532593546
H          -1.67967440330104   -0.95020985476330   -2.29089961822941
