    26
        -50.44195650  Gyration_radius:  2.44525729914 Dipole_moment: 4.530
 S           0.04274539351209    0.66395399664637   -1.79584387319486
O          -1.35858821900396    0.34372107954825   -1.46418458534326
O           0.22967870643820    2.08729883262178   -1.96064585819655
O           0.96565922281007    0.06712888787548   -0.86100277573520
O           0.31247553074646    0.00419283562599   -3.20191296681981
H          -0.20774347130834    0.52690297226051   -3.80429988289258
O          -0.82796161403142   -2.13391400352981    1.61691009105920
H          -1.02206948074757   -2.51813641034989    2.47309454404508
O           0.09170839810319    1.61607129792489    2.00514377227735
H          -0.23101284540799    2.36176761888782    2.51448747026918
O          -1.74578585400988    0.14862820489641    0.94062034544950
H          -1.48266761679997   -0.81142870980266    1.18908094636021
H          -1.04379619603623    0.75293782432753    1.35804236584998
H          -1.61683736632652    0.23226741862241   -0.14979045463391
O           1.63724935120656    2.58531956177627    0.17546738228434
H           0.69019046805767    2.00695373336314    1.29541665105818
H           2.34814346994423    1.95376335071232    0.03694080729057
H           1.10708375318739    2.54692403373722   -0.65515196502854
O           1.44396129278718   -0.86532673189315    1.60721525696248
H           1.43602072173851   -0.64091616479572    0.65810302541076
H           1.23308844557458   -0.03943378673828    2.05984913157222
H           0.11818970061277   -1.81382517809929    1.64106951959724
N          -0.50407651896125   -2.50932402566354   -1.56943996448053
H          -0.63789897912497   -2.69834448711224   -0.58263215464013
H          -1.29135145210580   -1.94929649853550   -1.87313586157729
H           0.31359515914655   -1.91788565232239   -1.65340096695455
