    26
        -50.46212458  Gyration_radius:  2.51155509694 Dipole_moment: 6.141
 S          -0.41723830999268    1.20890104243785    0.14446139899772
O           0.66090777938544    0.61379483860707    0.96368606846129
O          -1.26331891534785    0.13230986483934   -0.38115899183423
O          -1.27404178683974    2.07154042099002    1.09930331760249
O           0.11293308429579    2.05866009732638   -0.88558888829639
O          -3.32730636507460   -0.86110746692841    0.89167309782955
H          -3.33972090255577   -1.79193990197152    0.66382635004167
H          -2.63572302751293   -0.45128613732083    0.32182878913954
O           0.03664771323180   -1.49418594840859   -1.98603844392251
H          -0.62982821176838   -0.94932143871386   -1.50924029731284
H           0.92519901907848   -1.73613827726628   -0.84452091891499
O           2.99355862921877    0.77632393447092   -0.34798540363897
H           3.39735378794789    1.64421984485628   -0.39449103608401
H           2.16248096481165    0.89905022059763    0.15731219504321
O           1.46269036685330    0.59862186781701   -2.66987027195175
H           0.55807187341018   -0.81641886137309   -2.48828130691924
H           0.87828951023811    1.24531240402325   -2.22678700041298
H           2.24283821339556    0.57229545522032   -2.09461502073901
O          -2.16025516366493    0.40549254270987    2.91004181877766
H          -2.81997158482048    0.89105881302674    3.41005495991963
H          -2.65813805467892   -0.16085271790545    2.27618726549968
H          -1.52906044475667    1.44777278243032    1.82529617873010
N           1.52958176765303   -1.64673159211225    0.08036833398352
H           1.10462674095289   -0.79368606951360    0.57662981603042
H           2.48724366490681   -1.38706569994282   -0.15371910793815
H           1.50217965162823   -2.47662002789272    0.66162709790809
