    26
        -50.44721165  Gyration_radius:  2.51036585427 Dipole_moment: 3.933
 S          -0.08052952509502    1.55399509694137    1.44976416986622
O           0.85057924417632    0.68127008202315    2.18835924723552
O           0.34796151084097    1.69421131574128    0.06631515720248
O          -1.45345054132002    1.16252400465607    1.59165405993636
O           0.09271056958570    2.97200327076573    2.12280584906301
H           1.03992210230776    3.05919817372415    2.11497873526354
O           2.95925623317520   -1.66000123487402    0.14608065734567
H           3.24132177514971   -2.44199484429977   -0.33074690935586
O          -0.72125929700230   -2.02208823944700   -0.33269576983722
H          -1.15652209490620   -2.87565013510800   -0.35486203465941
O           0.88652410979368   -1.70065751283332    1.62842014406824
H           1.79098410547439   -1.75864077524321    1.14816598389578
H           0.83320587451950   -0.65626967330483    1.93636172314813
H           0.18333739796751   -1.83363322342081    0.89379521723462
O           1.30012312153637   -0.34091082041767   -1.37156110597387
H           0.53263791842787   -0.92672517693497   -1.32053851715242
H           1.03370815304886    0.47211991688897   -0.89415539333014
H           2.47848020490482   -1.08070437343695   -0.50929371360127
O          -2.54798533059176   -0.28152562748865   -0.34973051725081
H          -2.33065902433985    0.31418763817945   -1.10847005314651
H          -1.48348948242248   -1.32526185011213   -0.33964763912493
H          -2.32029674079580    0.24988491886519    0.44002780220965
N          -1.53621089634567    1.48308054821060   -2.11861158095883
H          -0.85865440036811    1.74246913822055   -1.40177159615786
H          -2.06673026276060    2.31229275985877   -2.35314237574500
H          -1.01496473496009    1.20682663284821   -2.94150157017452
