    26
        -50.44195693  Gyration_radius:  2.44532142204 Dipole_moment: 4.528
 S           0.78848954583730   -1.17287292602936   -1.29252748157847
O           1.59464984325829    0.06180104336688   -1.24698030526371
O           1.53121068433568   -2.30220266412994   -0.78135840713924
O          -0.49757662315581   -0.99759060394834   -0.66233593940775
O           0.52453247466520   -1.45733810515827   -2.82038159079613
H           1.37607790599517   -1.72117683496925   -3.15501434441955
O           0.41291762262453   -0.34308841971374    2.52094433260863
H           0.98115851615182   -0.43318031006506    3.28815841577447
O          -1.01527529764884    2.58113703433781    0.40708103130802
H          -1.29898178930828    3.29675931925232    0.97780874280487
O          -2.00469680823993    0.28989215872246    1.14388133276204
H          -1.63990441116306   -0.22735100436590    0.40187257154760
H          -1.45958855774102    0.05276267539433    1.90420337377572
H          -1.55759596794288    1.77646838068940    0.64486382023943
O           0.24101508988215   -2.68839893603336    1.45018425525414
H           0.82250569732525   -2.65203309630012    0.65462833077333
H           0.35613755474239   -1.26207563943908    2.11243438055619
H          -0.64759615266571   -2.77563353531311    1.09500703955475
O           1.20726394180292    1.38198372522639    0.77224727855167
H           0.92736775059542    0.69858580926335    1.46973405604113
H           1.41610397426511    0.81558348117592   -0.14924209317626
H           0.37603535706629    1.95071437445489    0.57774866937196
N          -0.73477746259248    1.36765121161291   -2.56852758752653
H          -0.99886557198109    0.42347278062369   -2.31472013355224
H          -0.97599665413611    1.96713371860071   -1.78756147389570
H           0.27538933802263    1.36899638277352   -2.64214827417268
