    26
        -50.44195679  Gyration_radius:  2.44539513243 Dipole_moment: 4.526
 S           0.43187448801945   -1.23549113317850   -1.39843951831603
O          -0.60234659607500   -1.85491526800241   -0.54791985926041
O          -0.08345081870229   -0.93690352167140   -2.71504447833722
O           1.05076359130862   -0.10347488468072   -0.75263540999970
O           1.54745135957968   -2.33328268785283   -1.58584111130200
H           1.13711201443342   -2.98335976170850   -2.14773724943238
O          -0.20549269047779    0.30710168761736    2.77899852051212
H          -0.50626998206585    0.77910223558142    3.55687227377823
O          -1.57519420668575    1.99254365654852   -0.43695057251130
H          -2.40731595841759    2.37674006767804   -0.71910166257858
O          -0.15242707167800    1.66455795645848   -2.56880926245361
H          -1.03197978341021    1.86813461370813   -1.27600309295124
H           0.76398080149776    1.82460832295381   -2.32806723017588
H          -0.19264460370896    0.69801994578638   -2.75987571333745
O           0.87306673855654    1.89758537849767    1.02422982289457
H           0.10740001608007    2.31727934457776    0.61299108607821
H           0.33759060772636    0.94471901754070    2.23436801436791
H           1.14291624553584    1.19941069519556    0.39905942577106
O          -1.78438593315414   -0.23620042116618    0.84920028403494
H          -1.73125832901406    0.63342569062784    0.32690405294038
H          -1.28088751190985   -0.99862324455104    0.23303209838241
H          -1.19950603905433   -0.10716538130927    1.68182420541593
N           1.54209337378025   -2.08711498232405    1.50784067678889
H           0.78525074096317   -2.64746219062510    1.13504152242232
H           1.90246256664510   -1.54585640369338    0.73147593821469
H           1.13119700021605   -1.43337874199589    2.16458721905443
