    26
        -50.44195688  Gyration_radius:  2.4453317458 Dipole_moment: 4.526
 S          -1.87445977632839   -0.30963982010934    0.24177350222408
O          -1.14383765768829   -1.41209611912430    0.89541368684374
O          -2.55244569248105    0.51751978382843    1.21359902957631
O          -1.02802037640976    0.43624332272670   -0.65763598037674
O          -2.99411251537488   -0.99466717275003   -0.63116200474934
H          -3.60837819636083   -1.33632789663553    0.01122291649903
O           1.26138504076939    1.69153004473302    1.47985095070515
H           1.54721931743227    2.03611378672047    2.32790877682253
O           2.38936116346074   -1.13155506887402   -0.93182270619123
H           3.34525093780378   -1.15310867342980   -0.99612711917950
O           1.43418526871820    1.25530645895482   -1.33457731770729
H           1.61422451767802    1.70422934537111   -0.49939344193351
H           2.08821911326158   -0.23634972317232   -1.25755890190206
H           0.49339714972787    1.00280428835724   -1.28662113886033
O          -1.09020577529294    2.66821847515553    1.04108636675381
H           0.34448503005809    2.07752877477534    1.32197639561219
H          -1.16377232838944    2.82336679018572    0.09563669153365
H          -1.71495799864499    1.92636136490805    1.21915950161266
O           1.20467407017496   -0.88400199957450    1.31465381461779
H           0.15142216393659   -1.16118602423831    1.14944654836151
H           1.69813795164500   -1.09545510270751    0.44062982646394
H           1.22153949667087    0.12698136810855    1.41325988620493
N          -0.46618675601185   -2.30438825525233   -1.86556116399547
H          -0.75896119780729   -2.71533391094934   -0.98744434890146
H          -0.92740043519208   -1.40467856155492   -1.92486471232206
H           0.52923749463855   -2.12741547543669   -1.79284905770508
