    26
        -50.46489365  Gyration_radius:  2.55378535138 Dipole_moment: 4.634
 S           0.16482831904366    0.19415628244514   -0.78561571247525
O           0.43102689997668    1.59985207279444   -1.01542766629692
O          -1.22185110701836    0.02706844487496   -0.29375361885532
O           0.28754025718692   -0.54550987720619   -2.11794811785856
O           1.10691442754121   -0.38269419175206    0.17379690839983
O          -2.82367797244230   -1.91696625117846   -1.18725227479721
H          -3.23154757830185   -1.54052656282265   -1.96894613243852
H          -2.31216130692880   -1.19378038518309   -0.77070159559779
O           0.77856265768462   -2.94460896824940    0.70448947191813
H           0.89633674116763   -1.97487366698272    0.59887651120304
H           1.65971837178850   -3.31117376601114    0.79536541243009
O           2.18649040484072    2.99004882633117    0.37813993672880
H           3.04968748662016    2.93767662826190   -0.03429060599982
H           1.57048312207085    2.52041633050024   -0.22921360268365
O          -0.38984959290561   -2.93557120407057   -1.69683815476807
H           0.04703209127754   -1.54541127873271   -1.98595293047939
H           0.00108193438083   -3.12495693013734   -0.81478162664560
H          -1.34865097643879   -2.80681703934438   -1.53625930012060
O           1.21901496768651    1.29566120731243    2.19615052872421
H           1.76976473497678    1.98829466299234    1.77296065935882
H          -0.13797965224177    1.77770233483763    1.81104425784462
H           1.27352178523014    0.53834017674701    1.56823739410574
N          -1.05655705703873    2.05271274307266    1.26961241951114
H          -1.26966278414444    1.19281085249229    0.65311017657122
H          -0.82347178501984    2.81146854462215    0.63073708904596
H          -1.82659438898961    2.29668104438603    1.88446057317630
