    26
        -50.46489354  Gyration_radius:  2.55392540104 Dipole_moment: 4.636
 S          -0.78022366115294   -0.19094453239954    0.19112909403243
O          -1.50497656229116   -0.94701449128712    1.30482256327551
O           0.19516601623697   -1.08094197947351   -0.43918943566097
O          -1.76650779885834    0.27938392693002   -0.76059742712137
O          -0.08691606926585    0.96787134369291    0.79875723308900
O           2.06117779461231   -2.05143305902357    1.15118919602228
H           2.20870660602994   -2.95477398838105    0.86612983855969
H           1.43494382120040   -1.65980693338899    0.50323968170443
O          -1.60501337740548   -0.16554906110889   -3.35541150402189
H          -1.76990305928439   -0.02331252397769   -2.39547186189201
H          -2.04069214141846   -0.99000524700275   -3.57540458747694
O           0.44905667228817    1.09297562789907    3.41415775949428
H          -0.34412874634608    1.47318230028321    3.79550997111085
H           0.33152807447762    1.13274990005065    2.44318636897393
O           0.95415786311842    0.11157651268145   -2.65761238298263
H           0.56398926879406    1.41033121466253   -2.03813352521304
H           0.83332815963069   -0.45629284930638   -1.86153096061586
H           0.15232773281522   -0.06630067013509   -3.19377215854708
O           0.22787190526154   -1.55707989014195    3.02922135229632
H           0.42841090572040   -0.66395617069072    3.38111051155979
H          -0.82269874600836   -1.24644787375009    2.02589620659855
H           1.00684398729926   -1.80510736076286    2.48304046055201
N           0.09445550880838    2.20598841015745   -1.43914980170713
H           0.58045111723453    3.09501538713766   -1.50203957999641
H           0.07685253515106    1.80848870328846   -0.43582281447691
H          -0.87820778664693    2.28140329404205   -1.73325421755867
