    26
        -50.44721164  Gyration_radius:  2.51036231169 Dipole_moment: 3.933
 S          -0.04692194877588   -1.94932320965540   -0.84926580905807
O           0.82725331658411   -0.85889709114896   -1.25421816604514
O           0.26617528458568   -2.37218544365640    0.52815920832574
O          -1.44078886588989   -1.67736176226098   -1.05289804754073
O           0.34066070448409   -3.19434540689913   -1.74001931374431
H           1.21496717988693   -3.38140017319951   -1.41525765134486
O          -1.17807037177709    1.29939048415474    1.28191836871180
H          -1.83021589941807    1.76488421335947    1.80778193000382
O           2.06211261235283    0.11274935330660    2.69604566235460
H           2.21921317127808    0.83058927789797    3.31123802091302
O           1.49404593453737    1.14787269469938    0.37188862103982
H           2.02990561236142    0.51681707449917    1.78394242415782
H           1.36065301043957    0.41319384062400   -0.26242949885006
H           0.60729266024690    1.48580618804169    0.55706235642116
O          -0.27767814096183   -0.83844935415793    2.35579195051716
H           0.66534923930085   -0.53734172193767    2.62429437726318
H          -0.70889499463571   -0.01552955757767    1.92141692272572
H          -0.09286602110450   -1.55991262021877    1.55970019862766
O          -2.24697633604922    0.85118003850884   -0.95935350273434
H          -1.61832008628257    1.22453034182309   -1.62507409100472
H          -2.13069692834235   -0.11709615917012   -1.04231754474999
H          -1.63349797598805    1.12514090113259    0.37151280842726
N          -0.21169863727958    1.47374292284928   -2.61361159655547
H           0.43126586910355    2.23630462285225   -2.43967254080831
H          -0.34485274259288    1.40433473591260   -3.61436065701644
H           0.24258437393477    0.61530581026943   -2.30227443004840
