    26
        -50.44721165  Gyration_radius:  2.51035406284 Dipole_moment: 3.933
 S          -0.11431504478773   -1.38781791945696   -1.60750375104351
O          -0.48481021926914    0.01824995504561   -1.66136467585583
O           1.33361808548581   -1.52702632482801   -1.36618203912056
O          -0.91417030013110   -2.16090126067415   -0.70147936424622
O          -0.32787268477776   -1.96777567049347   -3.06069260997379
H           0.34930356562836   -1.50261377041920   -3.54021557866819
O           3.08319415393997    1.41209566446896    0.18270396400062
H           3.44018656958998    2.00856568270088    0.84242512234117
O           0.23007349235098    0.04942111090465    2.15977804885605
H           0.28165500457169   -0.09666694913177    3.10556611734255
O           2.20172321995272   -0.88956772193054    0.83119589895810
H           2.69736753100611   -0.02602013843745    0.58484880525317
H           1.39212883662344   -0.58646892710357    1.38303321429396
H           1.82101322118041   -1.24178565616616   -0.12766070587256
O          -1.96933359298656   -0.92579638762043    1.39930353553123
H          -2.42488622600014   -0.19214668782789    0.91762373555606
H          -1.67986247172544   -1.53149264042015    0.68705371256849
H          -0.67400755359824   -0.35607420985311    1.86852275145020
O           0.51971174961524    1.84878457330207   -0.00123258685484
H           2.15112174845090    1.71539037802206   -0.00567404991084
H           0.16081128994475    1.25769647192809   -0.69528439390292
H           0.22862688902052    1.46164420937438    0.83555061283901
N          -2.82005650686407    1.01058270050469   -0.27199474548200
H          -2.09618102675338    0.70348604851386   -0.92155398279622
H          -2.67231287315015    1.99721044876231   -0.09906590112441
H          -3.71272681731675    0.90902701083346   -0.73770116413912
