    26
        -50.44721164  Gyration_radius:  2.51035993829 Dipole_moment: 3.933
 S           0.80020224564067   -1.79459884199490   -0.81385306698214
O           0.12119722882591   -0.74443016851434   -1.55769170688133
O           2.06381348748838   -1.28678950358052   -0.24856393549210
O          -0.03201256658076   -2.44374047442572    0.15791210467247
O           1.25016242174670   -2.87861522678826   -1.87035306661208
H           1.90588835474051   -2.39171539150315   -2.35802468016092
O           2.36309403983979    2.43398284232766    0.15855764782665
H           2.30821953909636    3.30996681140740    0.54336549525202
O          -0.53838195249303    0.88024089552511    1.91181889269491
H          -0.77539693180793    1.10316980026999    2.81328266805357
O           1.93837797381597    0.35146483331119    1.56494108290121
H           2.24791196606654    1.19363816217283    1.06795979099694
H           0.94049180310140    0.49993744569078    1.74935219076089
H           2.01048696810748   -0.42772817557455    0.80593745452862
O          -2.01835547984702   -1.04765771458980    1.23384277549125
H          -1.15281237852360    0.09124711880555    1.65379806326918
H          -2.45574044909467   -0.75595690473297    0.39635289444220
H          -1.35852650796826   -1.70722011812147    0.93793380313035
O          -0.00571448504013    1.78288616379180   -0.71363979119414
H           0.05769443042927    0.89886121839813   -1.13123377490670
H          -0.45353890597273    1.63220604838345    0.12990456553663
H           1.50586030948714    2.27910799640573   -0.32868072484425
N          -2.71879834527312   -0.28478397877294   -1.25491614108452
H          -3.34196212543003   -0.86894799385607   -1.79756490281042
H          -1.76425729245508   -0.50303615942931   -1.54029019945722
H          -2.89790332789777    0.67851132539465   -1.51014744913078
