    26
        -50.44772979  Gyration_radius:  2.51298973207 Dipole_moment: 2.774
 S           1.71452032580343   -1.23500588404544   -0.02605506228163
O           1.70349869675989   -1.39231832573003    1.40888108469536
O           0.86732657777295   -2.24041303169892   -0.69100702636889
O           1.41257083396138    0.10565023545861   -0.47417791806170
O           3.18464898655420   -1.55486806905802   -0.51240026129898
H           3.32300679513808   -2.40561451370995   -0.11011045143031
O          -1.98528153678599    0.07668967165703    0.85368146458904
H          -2.76270533679081   -0.04398338837060    1.40111835094972
O          -1.76615749942296   -0.34407061722846   -2.89620376448953
H          -2.63363015904255   -0.05855896790792   -3.18686666004677
O          -0.04558189275032    0.30195333164878    2.45473562100491
H           0.60470067501031   -0.38507931056637    2.19678011749207
H           0.39295765296898    1.15225794594085    2.21279229014678
H          -1.19669307340312    0.16573492699185    1.51305955440656
O          -1.53666466936112   -1.80289521179565   -0.81863203811295
H          -1.65365450017213   -1.33075709808164   -1.72199486455429
H          -0.47342286554543   -2.03773304694619   -0.75606316386215
H          -1.72158007065908   -1.08816201336892   -0.10728449211504
O          -0.76401787214319    1.44571027030432   -1.28694807336281
H          -1.28494773811245    1.27954119838041   -0.48901923440236
H           0.10975258265448    1.05400310391428   -1.09542658268840
H          -1.34347873749933    0.43407567215169   -2.43533959680319
N           1.30028166559387    2.36668631001003    1.33454006218296
H           2.15336470198724    2.72336132052838    1.74578913914365
H           0.84143576721602    3.13366689758830    0.85871547196549
H           1.55975067082347    1.68012857391490    0.62743603394721
