    26
        -50.44721161  Gyration_radius:  2.51036323517 Dipole_moment: 3.933
 S          -0.44234453358585   -0.83975952562370    1.90314589094820
O           1.00383117726204   -0.66175675598346    2.12904517233421
O          -1.02008170603814    0.37405840585480    1.34630875711082
O          -0.75512848042065   -2.02336864394551    1.15513579857622
O          -1.04856897362070   -1.00585046608537    3.35183895725684
H          -0.65612003798273   -0.26201182862138    3.79634822170604
O           0.94469997908607   -0.52353966340076   -1.88486958187436
H           1.33864260229857   -0.92000100990659   -2.66342803166711
O           2.70293110867843    2.04963855451629    0.16331816793657
H           3.16797382020478    2.49958428366335   -0.54360248824682
O           2.46231214455687   -0.48749224812106    0.17182572648191
H           1.83565212624553   -0.63208325269709    1.05204526598983
H           1.85400170408897   -0.58007619562660   -0.64864790248956
H           2.70422687129477    0.50828877487319    0.21588139520623
O          -1.20445356634280   -1.77222937653032   -1.45015157737806
H          -1.08672784166066   -2.04728476214597   -0.51825464794751
H          -1.90431310946076   -1.07507051863128   -1.40615583596385
H           0.06931775783224   -1.04723837658571   -1.72346873662119
O           0.19689403107433    1.83775558930555   -0.52243904295470
H           1.72783265572427    2.14103510385981   -0.02938577816206
H           0.27321803503326    1.16192179745174   -1.20964431071748
H          -0.28223641601872    1.40213437859123    0.21281128680382
N          -2.86265882673130    0.27566695793919   -0.88164669567933
H          -3.83377432366888    0.08514892745288   -0.67015615705714
H          -2.81863713908568    1.17213989872355   -1.35024709035372
H          -2.36648904876440    0.37038993167665    0.00439325676954
