    26
        -50.44721160  Gyration_radius:  2.5103442172 Dipole_moment: 3.933
 S           1.11673075184578   -1.34332703749966   -1.21302201651739
O           1.47588371276281   -0.11540906230261   -1.94606889130814
O           1.28000556208626   -1.14319446065982    0.21893242505678
O          -0.16885213705826   -1.86386555243239   -1.57990408586015
O           2.21008092162053   -2.39561377055830   -1.65016955381338
H           3.00646978391794   -1.89413143783961   -1.51171818020392
O           1.38714019595161    3.09968307199816   -0.00787564046518
H           1.06292676292384    3.91176589933400    0.38437740675385
O          -1.81643514692738    1.19065502143971   -0.05140988189329
H          -2.66436529411222    1.60989715966589   -0.20559993942434
O           0.56983324349116    1.10776449897309    1.46168002793694
H          -0.36928041328905    1.11087470146261    1.23166805592372
H           0.92531649717400    0.28074883780809    1.07486349111640
H           1.22560145889529    2.37365175584748    0.65779127539217
O           0.00393633351923    1.82750813294393   -1.72928384233469
H           0.59400972386069    2.43656714253756   -1.15230255604560
H           0.63135975039778    0.95069241283259   -1.89035833058146
H          -0.76486211292763    1.53820772122842   -1.11525730060650
O          -2.23886605750392   -1.29679198354703   -0.01600245931123
H          -2.00986155520133    0.17620732523164   -0.04111564463997
H          -1.60117972998191   -1.61389199105668   -0.68738075516210
H          -1.85881092964999   -1.61150034886101    0.84091101581507
N          -0.73421535050269   -2.02607400455433    2.09843450310909
H           0.08505349960094   -1.85235423446477    1.51631463425823
H          -0.70961993322820   -2.99781151625601    2.37991363648094
H          -0.63799953766463   -1.46025828127162    2.93258261632089
