    26
        -50.44721128  Gyration_radius:  2.5102903725 Dipole_moment: 3.938
 S          -0.92215814501768    1.12855994350643    1.55113006587953
O          -0.22699939606450    2.25901524777504    0.90836531512647
O          -1.60909885498617    0.32368680183874    0.55251021911110
O          -0.07446713937106    0.36682148999193    2.42251997619317
O          -2.04204987002655    1.80739005434194    2.43364973599624
H          -2.43528363683267    2.39862049903726    1.80069908957802
O           0.54395651343681    1.91280481028266   -2.75122528367888
H           1.00548581932675    1.69180170959047   -3.56166559195669
O           1.94524446532156   -0.77476219849624   -0.57986613325941
H           2.84561762126593   -1.09141160450885   -0.66688729498784
O           0.99007014363422   -1.87593773226218    1.47963382861232
H           0.15616191800705   -2.31199280352981    1.17571330350711
H           1.57316242672214   -1.23529982969167    0.26644264409596
H           0.67879363549473   -1.10160920622169    1.99094496281216
O          -0.54347091152611   -0.26612661930757   -1.82051215021697
H          -0.01263856637219    1.11996281071069   -2.51147077229395
H           0.25073577072202   -0.72438288743498   -1.51369789821210
H          -1.03628885060374   -0.03474020175358   -1.00598705424833
O           1.71791111765869    1.76983585595572   -0.49367550109311
H           0.89596004949359    2.00935374253796    0.18194428061939
H           1.84809565369986    0.75314379423044   -0.46021467532887
H           1.32352561661672    1.96011762432649   -1.42130216949015
N          -1.45565622729885   -2.56563761413584    0.58023842475820
H          -1.69723284306639   -1.57534788687354    0.61518350914849
H          -2.09284843260266   -3.05852828360427    1.19273336273221
H          -1.62652789764393   -2.88533751630909   -0.36520417340310
