    26
        -50.44772982  Gyration_radius:  2.5129883512 Dipole_moment: 2.774
 S           0.27584081799941   -1.79833334280126   -1.07488827758901
O           1.72171415463248   -1.56175630137061   -0.91937769721981
O          -0.25293523467953   -2.60013533614666    0.00279142799761
O          -0.44957301860461   -0.56961022251669   -1.30592009525034
O           0.14314890135454   -2.65787813553477   -2.39537053833767
H           0.57114880200013   -3.46344314282583   -2.12592354402760
O           2.32703523291846    2.31469519441324   -0.92359481039872
H           2.59356057947392    3.16777362091901   -0.57755077315632
O           0.36863192643836    0.84538032573197    1.95578359619014
H           0.53395531451018    0.97842398088533    2.89045248217810
O           2.42888628707658    0.24915520483907    0.56638264619533
H           1.61682974654881    0.44718694144584    1.16002052819007
H           2.14589719775587   -0.58009493271927   -0.08298212796299
H           2.51940276611115    1.05864997480156   -0.05747946039353
O          -1.34322992436598   -1.00578853157314    1.81741063490003
H          -0.95287741309297   -1.69849638942690    1.24365164541271
H          -0.32918867184303    0.08697625875395    1.90594218467579
H          -2.08285843559754   -0.63530638089734    1.27931092840400
O          -0.23283697512130    1.99390816351494   -0.54767583232471
H          -0.37316708239735    1.12117956180911   -0.96270579531007
H          -0.25242028345515    1.81681273430076    0.40306421724619
H           1.32885035401055    2.30172529202215   -0.92748873334430
N          -3.01129982970638   -0.01477084810575   -0.07062210089504
H          -2.25412264442540   -0.24347944888765   -0.71331563719163
H          -3.20773300515624    0.97324771939227   -0.17257979522699
H          -3.83265958501213   -0.52602198077430   -0.36733505141137
