    26
        -50.44721126  Gyration_radius:  2.51033495187 Dipole_moment: 3.940
 S          -0.97022983898285    1.08554686020014   -1.55249567005141
O          -0.30930960584822    2.24373284766032   -0.92304940555346
O          -0.02133068710500   -0.00302646817765   -1.73025120974221
O          -2.17871020063191    0.69430792746299   -0.88563628945201
O          -1.35467987507629    1.59130743898929   -2.99826576805843
H          -0.52817225497695    1.96670008137223   -3.28254425358111
O           2.85197334460393    1.55487295725640    0.98590536832773
H           3.44389312781627    1.33651443907917    1.70746391506431
O          -0.13876812400082   -0.35000211088050    2.13987692779262
H          -0.36457559314035   -0.44466910673893    3.06645991041087
O           1.79880752671612   -0.66129977141920    0.10515220555222
H           2.60442318058721    0.69399722144237    0.54593139736959
H           1.20083301110244   -0.85860099178113    0.83891385516406
H           1.21408266535873   -0.43914596800898   -0.64889514778969
O          -2.05696445095348   -1.33160255916847    0.82704389077802
H          -1.64350864047569   -1.99993144726429    0.22679779423774
H          -0.93409525089988   -0.75604980659701    1.62088918279595
H          -2.28838835233910   -0.59043109656832    0.23119141863389
O           0.38767163938163    2.04375910700211    1.41403911200692
H           0.02222757368944    2.17208081654219    0.39447576587867
H           0.10312104881080    1.10713516463789    1.71979466514567
H           1.40510006660549    1.99040781149224    1.29482187996711
N          -0.71013159463116   -2.72832657518025   -1.04418093085759
H          -1.22264357884803   -3.26475371771895   -1.73244885486052
H           0.15475699738479   -3.21853165223808   -0.85193459327856
H          -0.46538214414812   -1.83399140139620   -1.46905519590004
