    26
        -50.44721165  Gyration_radius:  2.51035777286 Dipole_moment: 3.933
 S          -0.51450889230181   -0.96847446859356   -1.82223918675478
O           0.27092405909167    0.24936210515515   -1.69121928238092
O           0.20318876989528   -2.10787387713676   -1.22156295569633
O          -1.86304570822041   -0.83886538904255   -1.35007005176618
O          -0.56958596712944   -1.30747473637339   -3.36360206190098
H           0.34117337092330   -1.52461449450914   -3.53164898776044
O           2.85102490992005   -1.29585194366232    1.31389313960248
H           3.27343216850330   -1.10770027063588    2.15330522768782
O          -0.54852207083954    0.01894468825617    2.10204125447897
H          -0.93810703091741   -0.05001150372931    2.97495488496146
O           0.45461481597195   -2.15728707344211    1.21211271042271
H           1.45695412246576   -1.95532610948532    1.29325455057086
H          -0.01787087769959   -1.31895006401859    1.56676883840455
H           0.29122191251343   -2.18435129710195    0.13461797435152
O          -2.34764758758494    0.92006152142898    0.57957397324580
H          -2.35825650677635    0.24755875870794   -0.13146822632145
H          -1.29850972703653    0.38776445375243    1.49532658996253
H          -1.94782867138836    1.71549812796784    0.14920887355831
O           1.63339265155565    0.86720210981551    0.51733373187742
H           1.22514664997653    0.68172536225734   -0.35377975591736
H           0.89713852699851    0.87913667572889    1.14391615791527
H           2.55164060247167   -0.42044228090735    0.93938492760746
N          -0.93990695168821    2.73285978478786   -0.83410476144667
H          -0.20685116887232    3.30308451006697   -0.43082184948960
H          -1.40855934094786    3.28627475651184   -1.53990183754736
H          -0.49065206888451    1.94775065419907   -1.30527388766317
