    26
        -50.44721134  Gyration_radius:  2.51035114686 Dipole_moment: 3.939
 S          -0.11498604375569   -1.30743151051453   -1.67538402047184
O           1.22478629739863   -1.72642641551658   -1.22387303486382
O          -1.03870099165394   -1.27096083471513   -0.55179868254960
O          -0.09766625540815   -0.09837975490156   -2.44746753479097
O          -0.59553774864033   -2.47951286999041   -2.61834352429142
H          -0.41881608911009   -3.23560941352123   -2.06882560742018
O           0.99068569257419    1.82590357625740    0.63696630662127
H           1.45557818655770    2.65683698787706    0.74625679814693
O           1.99643915332584   -1.28721851862436    2.42547264445305
H           2.28615985307747   -0.88825439174211    3.24741735930929
O           2.50191910390652   -0.18525279456778    0.18381228761103
H           2.44653871022533   -0.67516952239952    1.08335723340819
H           1.97422652904391   -0.85311546215346   -0.49801108319500
H           1.91906868747595    0.65099386018640    0.29663422777988
O          -0.36303411658228   -0.33725317192584    1.85366144531695
H           1.03072049798708   -1.05903435881942    2.31932100250578
H          -0.11703623813337    0.56192780450323    1.59706153409730
H          -0.66957159783394   -0.76459638223978    1.02704384807400
O          -0.68839431224913    2.17761748108565   -1.21330741514361
H          -0.46460119786176    1.44664157236853   -1.82447662302759
H          -1.55803294348082    1.90797003949963   -0.82737779647432
H           0.31033396649176    1.99008474360052   -0.12260970898042
N          -2.84694068800892    0.95373308429930   -0.16017641291818
H          -3.71638546069922    0.94156058909924   -0.67793127712836
H          -3.07498862702805    0.98694431613654    0.82581993633181
H          -2.37176438761763    0.06800133671428   -0.33324188240009
