    26
        -50.44721135  Gyration_radius:  2.51035956694 Dipole_moment: 3.939
 S          -0.83395192743540   -1.84406594110511   -0.65806679013192
O          -2.07009236701753   -1.04802341943045   -0.77082200370374
O           0.27958078148803   -1.13874313349046   -1.27424206793930
O          -0.56735893014137   -2.28557540204010    0.68066173650578
O          -1.10742827924769   -3.12120928243633   -1.54574511191201
H          -1.42310588143112   -2.71804703137500   -2.34741352840606
O          -1.66288719768182    2.64278501724241   -1.33270840504255
H          -1.55565874426312    3.57872712741090   -1.15601208264971
O           0.00308586438254    1.31699565263909    1.72809669109456
H          -0.05301135359380    1.75696349942355    2.57768347284359
O          -2.23908124570612    1.01209230255056    0.53903151592797
H          -1.36605407310622    1.08593992115936    1.07199562336580
H          -2.15692082052108    1.70856883321368   -0.20960475185090
H          -2.20680754282484    0.06298611494781    0.00268702961435
O           0.65387519659930    1.48975042175854   -1.01755351004487
H           0.72585243578186    1.53311574410406   -0.05430722205235
H           0.54911388635183    0.53773428566253   -1.22383916515741
H          -0.74573498576154    2.25341318239707   -1.38905470885631
O           1.16113803963772   -0.88779924699671    2.13361210619626
H           0.47852260747019    0.41933374496253    1.91493786860647
H           0.52184587562420   -1.52039732297290    1.74752556340478
H           1.92093672143509   -0.90054321941670    1.50080939692850
N           2.85256660392652   -0.94996311154797    0.03558569016694
H           3.48618211653234   -1.73169358176839   -0.07206853507416
H           3.31530715576057   -0.12518847301055   -0.32623639675879
H           2.04008605373868   -1.12715668187695   -0.55495241507214
