    26
        -50.44721127  Gyration_radius:  2.51034600312 Dipole_moment: 3.940
 S           0.71848822829583   -1.81979665891900   -0.83788372793281
O          -0.07326645196168   -0.81178277039111   -1.52639147164047
O           2.03629126063006   -1.27140706805240   -0.46763599873036
O           0.03532583181418   -2.43794761117692    0.26183566395045
O           1.04496445233490   -2.94194171449349   -1.89998550164579
H           1.62214313028518   -2.46838687744705   -2.48944582946142
O           2.31440439146489    2.46935645070913   -0.26376805674271
H           2.29415537676255    3.36027569807668    0.08915713980289
O          -0.29470760772771    0.95601569458572    1.92875155286040
H          -0.41324284398263    1.21440079204340    2.84400765276364
O           2.12280864389013    0.44574340296050    1.27354505672898
H           1.15613190544890    0.58871335206964    1.58470082281499
H           2.10762250821958   -0.36620981167534    0.54553420249112
H           2.34671639655363    1.26892556118735    0.70393279312988
O          -1.81377900142374   -1.01993178885182    1.53557947198049
H          -0.92266317806793    0.14810640543915    1.78830653364334
H          -2.36466646109022   -0.77021171896883    0.75323304863364
H          -1.18749094699894   -1.68329854434729    1.18111363068919
O          -0.13705489262648    1.74831899476820   -0.78024835850388
H          -0.46365053173528    1.62887980981117    0.12195794492905
H           1.40287262877491    2.28155589176831   -0.62407754256458
H          -0.11240957408761    0.84759359069371   -1.16487073280150
N          -2.85540872662795   -0.37139466346003   -0.86455990280202
H          -3.53717391649432   -0.98299014149902   -1.29501096298289
H          -1.94468682611076   -0.59168522999334   -1.26744571450324
H          -3.08172378553868    0.57909892516335   -1.13033171410619
