    26
        -50.44721117  Gyration_radius:  2.51028031072 Dipole_moment: 3.940
 S           1.18195914849590    0.82278563898732   -1.56727185668615
O          -0.14809144449520    1.26225715180412   -1.17380660969187
O           2.14630302247298    1.07128131920151   -0.47974587830403
O           1.22221116927257   -0.52383566688477   -2.06036290280396
O           1.64904298191093    1.78123557069106   -2.73218534675018
H           1.73944706097257    2.60344398284672   -2.26247301517582
O          -0.10449135320319   -1.75607372325966    1.27478345260305
H          -0.04722153173137   -2.60488776547650    1.71608990310301
O           0.73001195210084    1.45398657756731    2.97887370278065
H           0.41222748748295    1.23410180593316    3.85596855925666
O          -0.59211609810451   -2.23798737199981   -1.15348693058075
H          -0.30287769727456   -1.97441730567737    0.28498444809771
H          -1.40226311057452   -1.71107299370985   -1.36304447323412
H           0.12898741903271   -1.75001438516675   -1.60047946668280
O          -1.14835417495546    0.87081181083883    1.26784127231963
H          -1.09604218780201   -0.09434623499432    1.29338200550587
H          -0.05570575507707    1.40003294015396    2.36595282886067
H          -0.83132951862300    1.12071108392014    0.37517522098300
O           1.95612107833707   -0.27014387793642    1.55792292163592
H           2.09607677378434    0.28748992659856    0.63102463849234
H           1.59635120056565    0.43796952417412    2.20708967202724
H           1.17485163634930   -0.91657671534689    1.40491405867550
N          -2.48081330548126   -0.38097591082251   -1.65422868166654
H          -1.73828973880681    0.31726582412457   -1.61699669411988
H          -3.18363677688325   -0.11135160382326   -0.97698189399167
H          -2.90235821775260   -0.33168960173890   -2.57293890468806
