    26
        -50.44721162  Gyration_radius:  2.51037211735 Dipole_moment: 3.933
 S           1.48037131465888    1.40262414026755   -0.60359229655679
O           1.63338188641335   -0.04392483872522   -0.56745508769997
O           0.46706816740909    1.78558362976052   -1.60393411108383
O           1.25183303252403    1.99093305734531    0.68480261956165
O           2.83325761018782    1.98645703650577   -1.17153746285486
H           2.80526227332388    1.66469558699080   -2.06628441498567
O          -2.00969042961287   -0.85568416639885   -2.60039173559486
H          -2.79627772716204   -1.40312283907523   -2.60625263851181
O          -1.90192709517515   -0.08473770839161    1.04678716700526
H          -2.69456673871889    0.03476447494589    1.57210690989773
O          -1.87176355792009    1.23143546234190   -1.14433781771219
H          -2.01492957373791    0.47730366967169   -1.82468289127322
H          -1.88327714381887    0.77186599403709   -0.22755719941226
H          -0.84479475964844    1.54568251439405   -1.33134719473149
O          -0.42941914475242   -1.72851944141863   -0.71979197856712
H          -0.92017168595041   -1.42813136818024    0.05721984450254
H          -1.34613925533807   -1.31098665585154   -2.00989907552856
H           0.38570915755606   -1.18512616991047   -0.73345822427276
O           0.04538227471009    0.51623696378333    2.53462657575731
H           0.64650894195829   -0.26828046024800    2.50381001941883
H           0.50670285862567    1.18817773923280    1.99274311020128
H          -1.11854309393532    0.16578988648243    1.67141376642351
N           1.75864388311769   -1.47860482692878    1.94138704420734
H           1.89880060736941   -1.02666905888988    1.03787535895968
H           1.46221006146558   -2.42977683650116    1.76096359008750
H           2.65636811645460   -1.51798578523673    2.40678613276279
