    26
        -50.44721164  Gyration_radius:  2.51035882752 Dipole_moment: 3.933
 S           0.43368493892733   -1.05203531109720   -1.79675102253235
O          -0.44435139369896    0.10126335525122   -1.66963409473150
O           1.82380965885469   -0.67456149693097   -1.48180384607518
O          -0.01704408491180   -2.20327769693154   -1.06888807650305
O           0.46667732089061   -1.42851224422061   -3.33001681083462
H           0.91864065231159   -0.67287862691371   -3.69005948393779
O           2.31108911152731    2.41677053752053    0.59314877907591
H           2.40948889000732    2.98941412780048    1.35527542130929
O           0.17987542880562   -0.21517589299065    2.15435519234796
H           0.27710204451818   -0.48094511956239    3.07001375779863
O           2.36917815664898   -0.11931041970886    0.83826443497542
H           2.49980247449883    0.89457836375781    0.75437374006767
H           1.50159524184873   -0.23500943330059    1.37279834797700
H           2.15771779700674   -0.42988700466225   -0.18508073829735
O          -1.47703656396722   -1.80863177138426    1.11397956918130
H          -2.17464073211722   -1.23251079466806    0.71495922766301
H          -0.97390088128710   -2.13873276329897    0.34207514762497
H          -0.49975022255645   -0.87766800120154    1.74714274610890
O          -0.22406712305078    1.88297899010459    0.30342489278551
H          -0.35102280476595    1.28604704289187    1.05334085606238
H           1.33501577852432    2.37412013619377    0.38890081924254
H          -0.32615311494670    1.32004272859585   -0.49193370385625
N          -2.99052907374147   -0.09175395434220   -0.31017002176594
H          -3.23101949007709    0.83668455887927    0.01436312397600
H          -3.77410390928222   -0.44465670617470   -0.84451455535710
H          -2.20005808996510    0.00364739639226   -0.94756371230625
