    26
        -50.44721164  Gyration_radius:  2.51035847063 Dipole_moment: 3.933
 S           0.76629475680795    1.32517815694995    1.47645091375648
O          -0.31159837670673    1.61360548790173    0.54255787969300
O           0.36649409576942    0.25106245605968    2.40411765235781
O           2.02966757368563    1.08133995020771    0.84183887932757
O           0.92184291492521    2.60002616259733    2.39530471750964
H           0.10118819078586    2.57546533041110    2.87572973698460
O           0.50565173920024   -1.85336479591922   -1.01456365518461
H           0.89189782966935   -2.63750038228553   -1.40758350007312
O          -2.42420861906944   -1.99956463436075    1.28785461884032
H          -2.88860318825842   -2.73161044941213    0.87932988194304
O          -1.80799118367733   -0.28831944396025   -0.57971498548628
H          -1.10613611255506   -0.78107753421099   -1.02626650267974
H          -2.36099186994219   -1.27877386454782    0.60030838437064
H          -1.35766237570104    0.47224570650019   -0.15703496051216
O           0.11491577384575   -2.01161673397390    1.50666381423268
H          -0.90604137007317   -2.10495202199530    1.53835780176667
H           0.34841402659711   -1.95275951987906    0.50975396510380
H           0.28931947577453   -1.02419872645168    1.93445438857098
O           2.01976260162783    0.07370669626292   -1.61514744744771
H           1.13822189062078   -1.07818979069271   -1.27063424211041
H           1.42966683406887    0.74375636116722   -2.04012223325181
H           2.21233146656469    0.45409435806899   -0.73413993919314
N           0.19947002506113    1.94558590693450   -2.28533341338418
H           0.51340644499411    2.85662756732317   -2.59436754125434
H          -0.02447494142652    2.01643294392735   -1.29283802043815
H          -0.66083761257739    1.73280083335268   -2.77497620344865
