    26
        -50.44721162  Gyration_radius:  2.51035749057 Dipole_moment: 3.933
 S           0.76641772537018   -1.54071026040304   -1.24964337298895
O          -0.14723384076362   -0.48329996490330   -1.65499740979042
O           2.07069539517327   -0.97092206846345   -0.86450283748386
O           0.22247304916779   -2.42500751765430   -0.25946870585414
O           1.07621384480565   -2.39138780606907   -2.54354482170118
H           1.56632146953470   -1.76015417448923   -3.05952768357048
O           2.11357484258989    2.65617711200265    0.10641516418377
H           2.06358699001554    3.45162119316986    0.63861486577271
O          -0.19504525411001    0.51221977938116    2.10212071049289
H          -0.25328884336211    0.56738417142365    3.05714221416285
O           2.18800811898055    0.35126063745123    1.19133195383336
H           2.16650110682585   -0.29142742247009    0.31107939257862
H           2.30720694492621    1.28970245191011    0.79490535693271
H           1.24322145001590    0.34615713462077    1.59030298999699
O          -1.60624659350448   -1.46087801800301    1.40747419206150
H          -0.96813225381767   -1.98251559645199    0.87960778326895
H          -0.77679169672277   -0.29930594295932    1.83828970483703
H          -2.23655821041720   -1.10385322596849    0.73439940564395
O          -0.31838158187977    1.85483982280925   -0.38252723693442
H          -0.56039554136280    1.52608130492483    0.49393280790584
H           1.18949083507689    2.47094868005140   -0.22233852427990
H          -0.26611073138223    1.05749263642138   -0.94949534789579
N          -2.88701814925344   -0.42811487001736   -0.72786047148364
H          -3.20238743133128    0.53293291087510   -0.77417885473147
H          -3.55648593034609   -0.99731668066315   -1.22978070025793
H          -1.99963571422870   -0.48192430653059   -1.22775057469870
