    26
        -50.44721164  Gyration_radius:  2.51035530948 Dipole_moment: 3.933
 S           1.08632339239487   -1.42116719069585   -1.15044126506443
O           0.38441550114054   -2.39624187334296   -0.29563924038027
O           0.14895056486879   -0.43605699116806   -1.66821298484062
O           2.23904906881752   -0.84502847290879   -0.51989398355710
O           1.58148840274701   -2.26833247074095   -2.38771462131048
H           0.77988111033455   -2.72135282638835   -2.62664235282054
O          -0.02318994338558    0.88634093976493    1.98342494420202
H           0.13168789120126    1.21936428760176    2.86865234499353
O          -2.91083382100883   -1.32035243590643    1.14763092989221
H          -3.55680102876458   -0.94005838431421    1.74475581459344
O           1.98347928735538    1.54744585301745    0.60390784772899
H           0.80674657449708    1.16600129800075    1.43605613487274
H           2.26176391639232    0.68427817149071    0.23586845216819
H           1.61382341210333    2.03074321264010   -0.17555484699172
O          -1.80626706514495    0.62259374141093   -0.19431258631732
H          -2.63544562112945   -0.59419706603151    0.52064722539441
H          -1.26545009345245    1.01545749589012    0.50425341351995
H          -1.16597951259670    0.23029736274243   -0.82363440002558
O          -0.48259818599570   -1.62517286229898    1.85893052592125
H          -0.22622271955892   -0.63498561191242    1.93389556519645
H          -1.48863668658206   -1.62778146212319    1.65906169906429
H          -0.04285536960177   -1.99992813756021    0.93448647650229
N           0.77774755811957    2.38757240187959   -1.65594890594515
H          -0.09976723370029    2.89264313261558   -1.66190750681445
H           0.56731912022500    1.40908322953913   -1.85217217316403
H           1.34137149071787    2.73883463879932   -2.41949650681913
