    26
        -50.44772976  Gyration_radius:  2.51293319143 Dipole_moment: 2.775
 S           0.85404444536566   -1.48275853499238   -1.23857570834729
O           2.16187589557122   -0.97953458337931   -0.78379158001747
O           0.37446297100217   -2.55668996242022   -0.40160832818401
O          -0.09890119511767   -0.41256267952934   -1.42794154421378
O           1.12969927050757   -2.10172984491806   -2.66731816221325
H           1.68883314772592   -2.83590552754474   -2.43687422453283
O           1.81633549275901    2.88160438261239   -0.15640909317540
H           1.81867724537754    3.69804714246314    0.34559023813998
O          -0.13963488976725    0.55060450901585    2.08669987560404
H          -0.15350661663561    0.55117814813554    3.04497748184057
O           2.18676864545640    0.65847549308077    1.03381079465921
H           2.21019984677072   -0.08738680385835    0.23875665401675
H           2.17182699192152    1.56414061624275    0.55188679658472
H           1.27232604276736    0.57267735792634    1.48877683329607
O          -1.31711028750058   -1.57034413262120    1.38445116559376
H          -2.03622533705321   -1.27817859659543    0.77516086335695
H          -0.69264873778040   -2.05358384043546    0.80311105586778
H          -0.61968325955210   -0.31833486465281    1.80605201564658
O          -0.61966457643657    1.96588408689652   -0.30320063349450
H          -0.48387399776322    1.16958313318020   -0.85186388439315
H          -0.73675499723852    1.62518888980002    0.59451404636266
H           0.86148655863487    2.65862361190207   -0.34453263610426
N          -2.87390079401793   -0.64539706719193   -0.62818734522313
H          -3.28612581242491    0.27933505921109   -0.63232100883167
H          -3.49260321662556   -1.26241259584434   -1.13845982643991
H          -1.99590285552034   -0.59052340662103   -1.14270385588493
