    26
        -50.44991648  Gyration_radius:  2.48947435576 Dipole_moment: 0.431
 S           0.68846155182879   -0.71456354373940   -1.72675571132997
O           1.84131957076647    0.10372038558551   -1.31939564412357
O           0.67511189451184   -1.98239191745913   -1.03426132426093
O          -0.54596826370987    0.03108259543387   -1.63518170253325
O           0.91473802460682   -1.03863155355407   -3.25690474897418
H           1.56609711967500   -1.72821458648927   -3.19023413132909
O           1.69931414156801    2.91581957931409    0.48524833623402
H           2.01164841357486    3.02999471402039   -0.41545191508086
O           0.05326625172723   -0.05971006481296    2.21851997406346
H           0.10526688161586   -0.24974975412185    3.15632611760805
O           2.24642604677799    0.52617335713365    1.06687614608393
H           2.12364252228230    0.22318287892745    0.05106920661184
H           2.15127848706928    1.55845508155947    0.95625633675631
H           1.39596302392408    0.23278707656714    1.56864787496712
O          -0.93468417333876   -2.08102151238208    1.07617390083217
H          -1.77546982275454   -1.75694294821058    0.66952497211705
H          -0.32639886945881   -2.19944610047638    0.31739925324426
H          -0.35642676965492   -0.89964731488465    1.78036707642509
O          -0.68632949985542    1.87397072164638    0.29643666280746
H          -0.67815557455607    1.27923857552783   -0.48114285859489
H          -0.71685980175857    1.29252917756519    1.06823008741644
H           0.72834564660555    2.69378360974911    0.41133768507217
N          -2.93428291057728   -0.91257489367432   -0.31174663545709
H          -3.44383472067294   -0.11762080541062    0.05363811577922
H          -3.58037254549068   -1.46739356815605   -0.85851587732983
H          -2.22209662471903   -0.55282917965969   -0.94646119699783
