    26
        -50.44772994  Gyration_radius:  2.51302576186 Dipole_moment: 2.774
 S          -0.63055499391324   -1.26428229798138    1.57148023744059
O           0.72021865332389   -1.67984912501199    1.86583980601727
O          -0.99132024506540   -0.03212912036431    2.29420051786655
O          -0.92221165809815   -1.16576058588015    0.15919528588684
O          -1.59117995069541   -2.37585117212888    2.15599905591263
H          -1.27612143365127   -2.42865121146302    3.05192978628739
O          -2.13440651234013    2.63713634297057   -0.34346667309014
H          -2.10777967717846    3.45633990230547   -0.84019993648308
O           1.47589483365030    1.52213885901728   -0.42425126218657
H           2.25123068517337    2.08559332500062   -0.42328468955908
O           2.33148399631098   -0.82506642816824   -0.05685007094647
H           1.83173705383001    0.56571476515041   -0.27173949700567
H           1.85437021029644   -1.17147704242009    0.72659164713004
H           1.97328605705999   -1.35247035457168   -0.81012215496141
O          -0.28794958441395    2.10432218766949    1.33094872813458
H          -0.59410324550043    1.16741223328271    1.79779466633844
H           0.45868022184632    1.87149935797987    0.66813155723922
H          -1.08825242100061    2.39083772251062    0.75647781941990
O          -0.92303647679705    0.76842664050922   -1.69887831164948
H          -1.04658163950616    0.00064202265340   -1.10821229213752
H          -1.82803575909720    1.91370673638120   -0.95938506620521
H           0.00048673989766    1.02660586597433   -1.57197640645102
N           0.86551998494669   -2.19026506342128   -1.87799731503560
H           0.09814660631183   -2.03407918605926   -1.22578400557081
H           0.97164605582821   -3.18968673576342   -1.99575794972444
H           0.58883250886796   -1.80080760816828   -2.77068347675061
