    26
        -50.44991648  Gyration_radius:  2.48982345473 Dipole_moment: 0.419
 S           0.27217290389634    0.51575559459692   -1.90379245137045
O           0.42008332961411   -0.90618343077228   -2.11174818854142
O          -1.14289782862149    0.88834254817449   -1.75024879491777
O           1.07795113486341    1.05106082434055   -0.83032970468941
O           0.75622953880210    1.21918200717336   -3.23357665141536
H           0.37742499312636    0.63586869757788   -3.88202777042048
O          -0.86368943143735   -1.43409140400819    1.45624093832439
H          -1.20390626377413   -2.16899769591066    1.96854961715778
O          -2.57433871564286    1.95714072604742    1.08539829337527
H          -2.54304157765167    2.60928060043293    0.38150827787246
O          -2.52525150555259   -0.27407931715747   -0.08457735185880
H          -1.94164613219588    0.12509553312107   -0.88402022614546
H          -1.88098994900845   -0.80991784191453    0.51443864227542
H          -2.72223446615334    0.60082651287955    0.44671181005902
O           1.05858839842611   -2.28993970531935    0.06357480335553
H           1.84435775414420   -1.77547731413187    0.37219943338213
H          -0.07979103321450   -1.81238760275263    0.90172704984994
H           0.85105833430963   -1.91318242887182   -0.81662996022426
O          -0.09824106197976    1.28219589813355    1.55918448903240
H          -0.18169765287283    0.34586821935652    1.78525541286359
H           0.37234076741803    1.30458233789562    0.70099809694278
H          -1.63058084544797    1.83789324144326    1.38986509428392
N           2.96265051472506   -0.49269015961822    0.72228339831512
H           2.46538142186125    0.17911446276328    0.13845941500051
H           3.90315042623171   -0.57825682698465    0.35854694555141
H           3.02691694612721   -0.09700347650679    1.65200940193112
