    26
        -50.44991643  Gyration_radius:  2.48983825972 Dipole_moment: 0.419
 S           0.54651246315790   -0.30558218791434   -1.89027214259299
O          -0.69131744174282   -1.04605230821139   -1.97119987927164
O           0.30475948926034    1.14494148365710   -1.93852319519941
O           1.38617196559503   -0.66339811832168   -0.76999482683715
O           1.36240649886396   -0.64554818724351   -3.20030671881689
H           0.66303909606386   -0.63167106055733   -3.84447625247483
O          -1.63560200351994    0.40357092296678    1.44364018863353
H          -2.43594533541689    0.48470584520339    1.96439854954050
O           0.74097554137743    3.27199658002924    0.61577975259458
H           1.33545988211457    3.40947416905827   -0.12543365658658
O          -1.29257743496451    2.15696401471199   -0.36980952792814
H          -0.70332268981741    1.67899338547469   -1.12038330715486
H          -1.50398974656780    1.44238864394555    0.34134165637141
H          -0.56696224419123    2.76484002181860    0.06661544190787
O           1.15557416414632    0.82936296484142    1.43587918412860
H           1.35429664385128    0.29242947939688    0.64177159636730
H           1.02700251445925    2.41446279805046    1.04052524126117
H           0.27219194170133    0.55699625663016    1.71928357666810
O          -1.64759296255983   -1.87666646747978    0.36322338125489
H          -1.40645878869704   -1.66086754956872   -0.56149047241826
H          -0.84908064379207   -2.33349533247058    0.72527548200426
H          -1.66681335366420   -0.53635716038137    1.01848978705643
N           0.78699978744542   -2.77257782619447    1.11117524695897
H           1.18279560697639   -2.13365486910639    0.42231466031016
H           1.09107954740037   -3.70788605862790    0.87263418221354
H           1.19039751254071   -2.53736941969061    2.00954206204217
