    26
        -50.44991638  Gyration_radius:  2.48992500728 Dipole_moment: 0.421
 S           1.12651078192443   -1.35737303426183    0.92522307928574
O           1.88534627002451   -0.14222766151912    1.26033001942466
O          -0.02562339967962   -1.50915162401291    1.78355078291717
O           0.83287390874036   -1.42300428388887   -0.48819275774542
O           2.09241808605468   -2.56570990609893    1.24817914422831
H           2.01520310060510   -2.59641267968696    2.19544846943002
O           2.10826275906738    2.59860637788096   -0.66131249010050
H           2.93548077690084    2.12581263458196   -0.54357918745191
O          -1.49020890656159    1.63539216636232    0.16504055506531
H          -2.19322483191648    2.25463750536083    0.36656138134031
O           0.72290094827684    2.01998366624583    1.36267818976192
H          -0.20759729213653    1.87713332067809    0.94447845260925
H           1.17791426384297    1.05743610120515    1.43665017580291
H           1.30051311559039    2.43267809150227    0.59950708597316
O          -2.31822793885030   -0.68012970853511    0.73012816623750
H          -2.30298708319425   -1.17169563816341   -0.12746836238145
H          -1.56144486652844   -1.04546779064692    1.23379325081790
H          -1.85781041613723    0.70057098016118    0.40237526596326
O           0.45064667862414    0.90228795119049   -1.75029289124136
H           1.53950291029365    2.01527235018197   -1.23903077351276
H           0.65818856635510    0.02145718143780   -1.37675768513395
H          -0.39318836107216    1.15999459615400   -1.35492016255137
N          -1.78452448466631   -1.95697147303634   -1.58818591306284
H          -0.80100344432302   -1.93447644830748   -1.32054693400005
H          -1.86509546545780   -1.49254043376532   -2.48427204200674
H          -2.04482565579478   -2.92610225104057   -1.71938481965449
