    26
        -50.44991648  Gyration_radius:  2.48981921121 Dipole_moment: 0.417
 S           1.24105900840379   -1.42455078807499   -0.62889715616917
O           2.13313473879515   -0.71985768873486    0.30519410074416
O           0.34070116881378   -2.30957640645299    0.07330073044745
O           0.59135583593918   -0.50392028614824   -1.53361275073465
O           2.18199169347510   -2.34154015293405   -1.50717550861306
H           2.34744976515320   -3.05067832787582   -0.89564564681963
O           2.02449583418050    2.55868646856732    0.99345089345824
H           2.82305183571170    2.26919471796662    0.54600939198381
O          -1.29602215319374    0.78538339259543    1.62098398253896
H          -1.88500480257236    0.96344840572888    2.35562608340508
O           0.04202179947791    1.93415606904390   -0.58462257348841
H           1.29189721130986    2.48908088178471    0.31808976751792
H           0.28379046945325    1.09446436602999   -1.02611838971954
H          -0.65536456022065    1.70524366669892    0.04470165642337
O          -2.09099147071519   -1.32575693238064    0.49016398685887
H          -1.64686375980201   -0.07805565180390    1.17782661090756
H          -2.32584215025601   -1.04830091369683   -0.42916185531767
H          -1.25412033613388   -1.82467360972700    0.38780336216948
O           1.16921825305213    0.51660686972369    2.19682996929303
H           1.56849846111475   -0.12888893984002    1.44640143193422
H           1.55672154970992    1.42834166190695    1.87259370179547
H           0.15588161060276    0.58146469085753    2.02412523966927
N          -2.24812818496912   -0.46852676143768   -2.06531857769326
H          -2.52853614743351    0.47639300073867   -2.29680156845069
H          -2.59104875879555   -1.07905002990383   -2.79594572651420
H          -1.22934691113289   -0.49908770261299   -2.08980115559903
