    26
        -50.44991641  Gyration_radius:  2.48989421295 Dipole_moment: 0.418
 S           1.35680193666110   -1.04784244579195   -1.01295993828409
O           2.19907272545693    0.07256984238805   -0.56569646616238
O           1.17379258704776   -2.01903891356746    0.04083216023000
O           0.12949924476711   -0.57807273833356   -1.61390104063471
O           2.17796768008957   -1.76935979221788   -2.15427489822979
H           2.80653501268671   -2.25424525190474   -1.63080594424181
O           1.14273419793567    3.21381977190498   -0.05602300943607
H           1.76771395551789    3.11417786485654   -0.77794771993979
O          -0.80358099934641    0.63102993013775    1.96941259267161
H          -1.10311461606385    0.75144847375494    2.87168644730949
O           1.61089978915024    1.28072364100327    1.49127340743354
H           0.65856768079339    0.98383887930943    1.74826440574222
H           1.91607119488164    0.66332548026169    0.67594025609805
H           1.48483030453912    2.18686371466319    0.99180183471901
O          -1.11342770872454   -1.80113774656325    1.37318599746994
H          -0.94507080858640   -0.36829937468899    1.75362937059186
H          -1.75351035371876   -1.79850557848106    0.61975371205762
H          -0.25171689719151   -2.01675525014666    0.95995145972701
O          -0.89485361208942    1.69324971610558   -0.64521665541926
H          -0.53912331925557    0.90549470121861   -1.10491013834792
H          -1.17484271678648    1.38126959382896    0.22602655325307
H           0.29628426951406    2.78347933763571   -0.36575686791340
N          -2.50124867977431   -1.55602488132859   -0.92966566885954
H          -3.17565654607348   -0.81425336492623   -1.07134245741713
H          -2.83521974817956   -2.37396612818719   -1.42321725524576
H          -1.62940457328630   -1.26378948095264   -1.37004016718695
