    26
        -50.44991646  Gyration_radius:  2.48989275919 Dipole_moment: 0.419
 S          -0.79158712009665    0.38098239832758   -1.78697071567210
O           0.30374364502300    1.31536610421706   -1.90650465924898
O          -0.34052091594482   -1.00154518666386   -2.01039037956319
O          -1.54702961196726    0.49760211520781   -0.56065384801239
O          -1.78877632623312    0.70056278906842   -2.97057400806755
H          -1.17065432724556    0.85762488216845   -3.67591933859031
O          -0.16610054107559   -3.39068988404127    0.33503749941051
H          -0.81097526511140   -3.55520985293856   -0.35692273978484
O           1.82702306327610   -0.26200181443083    1.23129678096616
H           2.68302421914474   -0.25935240347898    1.66208463610400
O           1.55448137741645   -1.87903802586287   -0.71591356655944
H           1.73268959322633   -1.20597790664072    0.04320862041694
H           0.98166870038585   -2.63237872399593   -0.27901547346853
H           0.82059815922390   -1.43727169124705   -1.35257689282191
O           1.37561634103715    2.07770423254830    0.40093043210047
H           1.06922910281746    1.90924401223144   -0.51424193646550
H           0.56220671833232    2.36583705019965    0.88331159260229
H           1.66904497563874    0.70472558211134    0.90643433274008
O          -0.85192177912389   -1.12956849490176    1.44318506470584
H           0.00579755227566   -0.74468294274771    1.66891882276510
H          -1.21571866407401   -0.56287947899226    0.73256491148397
H          -0.52977327190832   -2.63177362851411    0.87293732336013
N          -1.06893696299269    2.49944336557310    1.46683042273699
H          -1.53515741322195    3.39110505576849    1.35840002033948
H          -1.33067737809065    2.12288142187933    2.36949541124133
H          -1.43729384068022    1.86929101518568    0.75504770726818
