    26
        -50.44991639  Gyration_radius:  2.48989815827 Dipole_moment: 0.420
 S          -1.62781954354857    1.01892405536619   -0.52778141646989
O          -2.32480142163053    0.00741506620976    0.23259097159179
O          -0.99618861994837    2.01071313382216    0.35657166345611
O          -0.68763695390110    0.49954713452806   -1.49446477513145
O          -2.72782343560486    1.81127868834329   -1.33988666741375
H          -3.40926026857514    1.88030263022328   -0.68024014540189
O           1.07146400706456   -1.15592963172947    1.56159865830746
H           1.38164721841495   -1.70705359930992    2.28156372462309
O           2.30580299402481    2.37730276950283    0.81687633154736
H           1.87663186488507    3.12309428990451    0.39107158042687
O           0.49315227376915    1.25068948697655    2.15685245969243
H           0.69036260514080    0.25544107436861    1.97916034473943
H           1.31576782791476    1.76128477224650    1.77086954615511
H          -0.25278500590819    1.54686023188770    1.45330275004049
O           1.86305788878503    0.31239266499672   -0.71650177268535
H           0.96921731899018    0.42800358567316   -1.09874903017357
H           2.29518760600074    1.63653826962260    0.14707017534385
H           1.78001167078886   -0.40471369947650   -0.07334407531436
O          -0.97628251861474   -2.25427337393307    0.57817411205142
H          -0.73174008162380   -2.45540394626737   -0.35835796737313
H           0.23875714655123   -1.63037472668569    1.17848245073675
H          -1.59581950469720   -1.49826812906005    0.51123442443164
N          -0.28212200548151   -2.31010058202255   -2.03042892043428
H           0.67585759948626   -2.45363441650396   -2.32509003170233
H          -0.46055311215656   -1.30652655587484   -2.05167938832667
H          -0.88408554011826   -2.74350919279296   -2.71889500272476
