    26
        -50.45381461  Gyration_radius:  2.6477739392 Dipole_moment: 1.729
 S           0.63224447551930    0.43940720131550   -0.23044576464434
O           0.53150879919514    1.87245352885870    0.27755005750467
O          -0.70205391773233   -0.06388488816500   -0.50801708027960
O           1.40269506994040    0.56236429746546   -1.53465495461569
O           1.37225380750506   -0.34612526099441    0.71722360663455
O           2.92850418485702   -2.37685977196609   -0.07363142093536
H           3.83085837659089   -2.12304831852989    0.12885851123493
H           2.35444628461006   -1.71003034701128    0.35155453409548
O          -0.70433158650228   -2.25522933048165   -2.04884842190713
H          -1.33677257429284   -2.10291290229747   -2.75348933012848
H          -0.79520086638727   -1.50719869027301   -1.42659984077046
O          -2.51106378267176    2.44067337739647    2.10001952411513
H          -2.01882570486706    1.60293354994311    2.30038940383485
H          -2.07377649333551    3.13675705240389    2.59316353720258
O           1.87494127443046   -1.70652933697543   -2.41638353021003
H           0.96850145838463   -2.09013779524782   -2.39979584693674
H           1.64450506164040   -0.39079086683646   -1.97294253876979
H           2.35096221636683   -2.11332748808271   -1.65395777481210
O          -1.78952113566643    2.46325821420198   -0.43209009313335
H          -2.20563783439841    2.55257410153869    0.46680121638063
H          -0.37723398035627    2.25454212476406   -0.05324151556489
H          -1.93953883180616    1.54781779277094   -0.70191024576902
N          -1.02078874789320    0.20853527104231    2.36669543603603
H          -1.20972437561171   -0.51270261333523    3.05290978579387
H          -0.02815424638545    0.41220586251034    2.40229721147711
H          -1.17879693115285   -0.19474476401813    1.44854553413426
