    26
        -50.44991641  Gyration_radius:  2.48987935252 Dipole_moment: 0.418
 S           0.88767077776796   -1.02733015072524   -1.45637227724342
O           2.02082989194587   -0.19714216435644   -1.01873739400356
O           0.69328453933573   -2.15533410192965   -0.57492588868392
O          -0.29649210093901   -0.22923861174500   -1.67759441308728
O           1.30936435343867   -1.61858617746958   -2.85994703529370
H           1.90213832964038   -2.30851207409104   -2.58269686778425
O           1.78580454861936    2.89544770918953    0.25394825204780
H           2.23170385533343    2.84484384714648   -0.59477343401509
O          -0.27372972273195    0.32280994531735    2.17783383667927
H          -0.37038485739447    0.29664570241643    3.13087943222393
O           2.09569795254847    0.62227063813386    1.29632657370590
H           2.08114862556760    1.62259260825201    1.00363595806622
H           1.16490039518588    0.45030529371681    1.70253148886577
H           2.10496654582832    0.15162030176395    0.33846229297035
O          -1.20895467819226   -1.82911888853894    1.24959363468618
H          -0.66633150048073   -0.56510486587361    1.82755085987890
H          -1.95968946548496   -1.55068243023543    0.66976307458211
H          -0.50513670249797   -2.09932998118705    0.62394252394176
O          -0.60678477984398    1.92398764827192   -0.12374444029936
H          -0.52137782521963    1.20391369183853   -0.78147410045454
H          -0.78413877984884    1.48584863717459    0.71970380011419
H           0.82395919085201    2.69914983929071    0.06981586846366
N          -2.90703069452432   -0.85077584363511   -0.60758182516962
H          -2.08793826044257   -0.62907809192956   -1.17271589845148
H          -3.41812156543048    0.01130960041696   -0.46365601413576
H          -3.49535808303347   -1.47051207121333   -1.14976798761763
