    26
        -50.44772982  Gyration_radius:  2.51298369235 Dipole_moment: 2.774
 S          -1.25698887794018   -0.33778798557526   -1.66482450444434
O          -2.42397514440215   -0.50626454292541   -0.83197584076320
O          -1.03095868293456    1.07746865938254   -2.00636079625132
O          -0.06377480251752   -0.96297336018098   -1.14067186915778
O          -1.57045369846618   -1.04489317481373   -3.04390763215944
H          -2.39879963684390   -0.63498384958971   -3.26872236891660
O           2.59288110832728    2.04298402153743   -0.85372167057407
H           3.26757485325915    2.50806309415179   -0.35668544255256
O           0.07458781435008    1.16061846157603    1.82299848308239
H          -0.14160169712907    1.67660648879224    2.60125442976789
O           2.04210234969911   -0.20883795149785    0.33921006587379
H           1.38040103698794   -0.58548771387709   -0.27225217683436
H           2.53795479108502    1.12046031517190   -0.47630343111846
H           1.52419560269673    0.11010818042240    1.09134146191918
O          -1.66676808867495   -0.66410345804925    1.70282888613117
H          -2.07908572774900   -0.59208388540486    0.81613200523668
H          -1.15619697007168   -1.50769568582224    1.66376101136018
H          -0.64113745415127    0.41874900017699    1.77822719037669
O           0.12858964699704    2.47601178913555   -0.36729173939407
H          -0.41207331592277    1.88477373048361   -1.10730808213810
H           0.05589282246917    1.97079323022890    0.52181844277018
H           1.11496446948172    2.41157752323629   -0.64219634565824
N          -0.12062068511289   -2.80243985234643    1.09752524763429
H          -0.52072483847523   -3.72441257258117    0.97954222744341
H           0.82504617338662   -2.91668391078540    1.44077299582668
H          -0.06103102750814   -2.36956656026121    0.17680951363251
