    26
        -50.45381439  Gyration_radius:  2.64783601552 Dipole_moment: 1.725
 S           0.68036069827352   -0.40881845542543    0.12577735925675
O           1.74504347322713   -0.05185988783431   -0.90437025369469
O          -0.63002899078508   -0.33717427764931   -0.49763290961818
O           0.98486573958728   -1.85306124300581    0.48779906357677
O           0.83299450078429    0.43911153890462    1.27477036502941
O           0.52829015085139    2.30689104304307   -3.32790563457122
H           0.30933741695674    2.48808657242050   -2.37744494967931
H           1.42513991510780    2.61703793365295   -3.46354383727164
O          -2.53710055491136   -1.57805286487484    0.91595356482641
H          -1.92489339907530   -1.04157607309922    0.37518689117472
H          -3.01917306310868   -2.14012707107475    0.30653666359411
O           0.26412804064994   -0.44234679906930    3.73871155243856
H           1.09546758493195   -0.46975606498155    4.21594177117957
H           0.44628821936716    0.02146921749994    2.89807742697747
O           0.45388364502687   -0.30788698088992   -3.02734434091872
H           0.44266516555127    0.64393566743884   -3.31548447019192
H           1.33413193587564   -0.21971978572682   -1.84477573323510
H          -0.35674719189871   -0.43868062428015   -2.51835495312323
O          -0.50969676186108   -2.55897341691862    2.33596802523268
H          -1.38275933074299   -2.30187752900751    1.96081617036132
H           0.36995562443830   -2.22524838482207    1.28943218968041
H          -0.30210780497598   -1.87837264282132    3.01947043698818
N           0.00388440724366    2.49156420855976   -0.68860437693329
H          -0.59524154950965    1.67762232829609   -0.59282303082777
H          -0.47825722081363    3.27607248040495   -0.26571108081149
H           0.81956930980269    2.29174110124749   -0.12044591945735
