    26
        -50.44991644  Gyration_radius:  2.48986317089 Dipole_moment: 0.418
 S           1.18044159644740   -1.22955481106491   -1.02947470006810
O           2.16541445360084   -0.20198566375342   -0.65703704596486
O           0.93398158662591   -2.14012474123138    0.06470671295088
O          -0.01009582857532   -0.63829465312184   -1.59624956068095
O           1.86117222683232   -2.07649141411783   -2.17694073647103
H           2.45216629095686   -2.61548865041084   -1.66267888408863
O           1.50216316125644    3.05484304749928   -0.21704710779106
H           2.07870373731301    2.86061935347626   -0.95972803301197
O          -0.63667322066055    0.78036887449273    1.97678898487914
H          -0.88011291064200    0.96257102359715    2.88555480552889
O           1.81295475024558    1.12885879474624    1.37794997792081
H           0.84523906412755    0.95320075442913    1.68399408591814
H           2.00811988677733    0.45532447506657    0.57337209324419
H           1.77004290911364    2.02776629958373    0.85197839568136
O          -1.25118292639815   -1.61610122364611    1.48048026243596
H          -0.43938177130228   -1.94337769331284    1.04040831670937
H          -0.90199966135665   -0.20169244584178    1.80256218075118
H          -1.91964477582097   -1.56169848364454    0.75414427291887
O          -0.72169350319097    1.76562456514843   -0.66798239975479
H          -0.99655019791903    1.51526302937196    0.22454732813321
H           0.59873561362636    2.71710709883792   -0.47645383249712
H          -0.48003032849939    0.92802803624114   -1.11347945787123
N          -2.70320666775776   -1.28061050294658   -0.77087882485424
H          -3.29298251372235   -0.46962574179345   -0.91082539450056
H          -3.15145057135517   -2.06849370649918   -1.22085573635525
H          -1.82413038975573   -1.10603561111948   -1.25685570313199
