    26
        -50.44991645  Gyration_radius:  2.48987140325 Dipole_moment: 0.418
 S           1.37355083794036   -1.34279488869297    0.52520631900231
O           0.30736229478578   -2.29453530693119    0.31410697586970
O           1.94850194629782   -0.89343033033005   -0.75243223750361
O           1.01874992225657   -0.22299122678877    1.36683551658354
O           2.53349280386058   -2.12101722153676    1.26438078777538
H           2.51219938534164   -2.94630386429888    0.79248390306747
O           1.63596733656990    2.18323688032362   -2.04744664281741
H           2.53181352608910    1.94184554187167   -1.80062960092687
O          -1.71814598610342    0.52299536732589   -1.30268201603332
H          -2.49833652769909    0.58616028580077   -1.85550009378163
O           0.21027022546270    2.00570167572244    0.13142775740055
H           1.13636738821651    2.29381109917708   -1.18975468061970
H          -0.64161708240038    1.69833135543078   -0.20710535449271
H           0.57289761421654    1.25790108652612    0.64883434379381
O          -2.14012400973261   -1.26867815762722    0.42318973950635
H          -2.09324067269694   -0.79999235596520    1.29239750170345
H          -1.92089927856841   -0.21227574753660   -0.60731367963703
H          -1.30972820429374   -1.78675380859061    0.38062602971210
O           0.46685384576710   -0.00308462021542   -2.49840091331126
H           0.93128945453419    0.93007454226385   -2.49757891650164
H           1.07110982914175   -0.50873615417590   -1.77838887494712
H          -0.45022480537327    0.15579049519521   -2.05714944601371
N          -1.53670940485721    0.08846288153045    2.67779743008965
H          -1.64757753924435   -0.34153527253756    3.58717430595222
H          -1.73768569284254    1.07577407619188    2.77748508436274
H          -0.55613720668990    0.00204366787076    2.41243675178552
