    26
        -50.44991644  Gyration_radius:  2.48989157861 Dipole_moment: 0.419
 S           1.55882228054968    0.60251658179199   -1.08259923740448
O           2.21419434799903    0.45447371447424    0.22634387491647
O           1.40553778139264   -0.67509451288323   -1.73934063523093
O           0.34028248961237    1.37220542537099   -0.97835283832771
O           2.55930031954528    1.44761815832153   -1.96705924883066
H           3.19455165806373    0.77704269599812   -2.19297899983125
O          -1.04420924407520   -1.66413047127858    1.03079776138552
H          -1.43418918113975   -2.47817496940568    1.35261268652257
O           0.73914473431397    0.91917712458988    3.20089216311053
H           1.43248170255970    1.55051897242748    2.99492319836217
O           1.30435386787346   -1.13858531509866    1.86066926305702
H           1.11186855063745   -0.39467610276560    2.56498594940612
H           0.37708000886370   -1.42298854138305    1.51376693683173
H           1.75328027084453   -0.55042777885494    1.09152036392706
O          -1.03660845328493    1.14655246647616    1.30191031544449
H          -1.35120168610520    0.23724123327927    1.20714283151319
H          -0.01758302130095    1.13353292240575    2.58530834217639
H          -0.54780695728016    1.34317058383966    0.47676250718226
O          -0.99867669597377   -1.77575279131682   -1.48966507650459
H          -1.56594674607235   -1.02284610118766   -1.78749312123042
H          -0.08420814798547   -1.48420065051551   -1.68600966328967
H          -1.04205895421289   -1.73719210631150    0.00134075866682
N          -2.20007860860970    0.56561649323397   -2.09329047576146
H          -2.94555038033834    0.94633766304748   -1.52369463718516
H          -2.38702640816269    0.81970100171316   -3.05487833116493
H          -1.33575354771698    1.02836431402336   -1.81361468773844
