    26
        -50.44991640  Gyration_radius:  2.48990299665 Dipole_moment: 0.421
 S           0.95426368607065   -1.71419588630815   -0.34406573656812
O           2.01682230878289   -0.98158885051430    0.36227727063770
O          -0.00893272307409   -2.26292029584880    0.58237296914637
O           0.37921286605520   -0.91781281900001   -1.40392088069017
O           1.66958841670833   -2.94367157711425   -1.03260249465088
H           1.77680197190017   -3.51929504646068   -0.28333023709131
O           2.46307669306407    2.34202781560964    0.28745284357611
H           3.16958076921159    1.83506182070048   -0.11940669856205
O          -1.02317506762031    1.32323517878254    1.45763394085272
H          -1.51554506255369    1.75210963317393    2.15901690389223
O           1.41207118710348    0.78105638305878    1.96355554451392
H           1.90462975178944    1.52292734948123    1.42191903287494
H           0.40935358483502    0.97416269971666    1.82821660030850
H           1.64528239758244   -0.06970705700152    1.36278142525687
O          -2.21965582502848   -0.82091736665944    0.87666019756173
H          -1.47955838273663   -1.46239248200062    0.85184884267432
H          -1.53621742572891    0.45447778787912    1.23995887653402
H          -2.48517879075853   -0.71514134498835   -0.06974010793415
O           0.28543535719599    1.72494771834447   -1.01194318234590
H          -0.38373540534186    1.75771491100111   -0.31484864705571
H           1.67522695835231    2.24912915828348   -0.31928866949613
H           0.36015323913223    0.78105816469482   -1.26079552365199
N          -2.45598202904229   -0.52597366721517   -1.79666768743454
H          -2.94757357895506   -1.21319193833522   -2.35368245433090
H          -1.45943764704267   -0.73136061569772   -1.86101710840003
H          -2.60650724989858    0.38026030642605   -2.22238500961941
