    26
        -50.44991640  Gyration_radius:  2.48988958267 Dipole_moment: 0.419
 S          -1.90833526209897    0.43682751454841   -0.36491287969599
O          -1.38336415000042    1.72600554796680   -0.75164018960846
O          -1.68360882041842   -0.56800661991197   -1.41591939263262
O          -1.45061664976282   -0.03451723976418    0.92213705173653
O          -3.47664723501300    0.60094109368540   -0.26042116204642
H          -3.64213999997295    1.14275652883240   -1.02415195064501
O           2.12490387406224    0.20133927980525   -0.60514130541923
H           2.99799361969533    0.44063732315598   -0.91940943591855
O           0.42824134879278   -3.16394552356994   -1.20074813959688
H          -0.49907551242998   -3.40655988723247   -1.25476077775992
O           0.66503152543814   -1.66898474264960    0.92534782493270
H           0.55127646220269   -2.75220920323654   -0.29916401456559
H           1.34997272189223   -1.04133081464977    0.65747758778897
H          -0.15847072598571   -1.14461539905138    0.99800515828767
O           1.01057675261940    2.29929952407412    0.24536463414495
H           0.84460663084792    2.12772683943598    1.20474204247191
H           1.69658219842116    1.07539640535207   -0.26175988945471
H           0.12535088176302    2.23770824855552   -0.16985212696659
O           0.58295024641469   -0.90313007617269   -2.30305532226242
H           1.22610241753693   -0.40613860136601   -1.67029614480272
H           0.61860257654820   -1.89847451521743   -1.99571113512952
H          -0.40739942191982   -0.65175019314438   -1.99465261488683
N           0.25201298811383    1.47536147439269    2.70196121807744
H          -0.47823378842639    0.93132038839201    2.24353451375981
H          -0.19867168591758    2.11256515770149    3.34616664100440
H           0.81235898759715    0.83177745002945    3.24685982917467
