    26
        -50.44991640  Gyration_radius:  2.48986170163 Dipole_moment: 0.420
 S           0.31892557117936   -1.93917674372611   -0.32404031755317
O          -1.03252127119658   -1.92279370937638   -0.83440572616242
O           1.26416000376640   -1.37117986414171   -1.29799798071257
O           0.47457899916021   -1.33207645173521    0.97802200656214
O           0.72563898975379   -3.45863620543399   -0.17163348542297
H           0.35193513255409   -3.81547114195496   -0.96992225743673
O          -0.90270912272746    1.90094603465535   -0.70336316493906
H          -1.41294167768383    2.62412454057124   -1.07075977623546
O           2.88819791190545    1.54295835690119   -0.95428649913719
H           3.45392317479586    0.76729927477375   -0.95152757956795
O           0.83452801952626    0.85576033367206   -2.24289287543149
H           0.08323581446665    1.27806809960732   -1.67878035423279
H           1.71718154619599    1.25365343807713   -1.85685930367099
H           0.93202882970460   -0.15599281537529   -1.91737295324199
O           1.22292243790489    1.23383686711109    1.03129131179077
H           1.02853898805502    0.27633646498107    1.09319203891331
H           2.38009517990329    1.51405195215073   -0.09491629681081
H           0.41672657303566    1.64091667660800    0.68613152055924
O          -2.52145635877035    0.10465656949924    0.01754613005355
H          -1.58910976191794    1.18594462424897   -0.41540056388745
H          -2.10612663006361   -0.70022166322830   -0.35597112837978
H          -2.38850353286051    0.01964382385564    0.99347959732855
N          -1.70249747049663   -0.28294780249452    2.56093519434760
H          -0.89254341232663   -0.76890487815265    2.17720726043361
H          -2.18769653159174   -0.92900595064954    3.17036028031201
H          -1.35651140227541    0.47821017956112    3.13196491252626
