    26
        -50.44991643  Gyration_radius:  2.48986980073 Dipole_moment: 0.419
 S           1.62035651871773    0.06060829781291   -1.15580650514212
O           2.12237182405037    0.96520563606977   -0.14746015722138
O           1.69614504767224   -1.33750386822189   -0.70383485046433
O           0.30105418499950    0.38507865054906   -1.64803712366733
O           2.60604310937167    0.16462851568496   -2.38664230202118
H           3.44121826704825    0.19883611758185   -1.93322946669836
O          -0.84857708033275   -0.03508163858707    2.04958100340491
H          -1.08460535305867    0.04666745829278    2.97472985872382
O          -0.93096263225700   -3.28129839818122    0.04523191467502
H          -0.42722842735688   -3.56701670863667   -0.72048959869750
O           0.25253621694995    2.12226559464279    1.34216621857688
H          -0.40515612533937    0.85970265567928    1.78896235996346
H           1.04159827810303    1.79578839089763    0.86196196899780
H          -0.33330818278714    2.48595343950883    0.63372001891402
O          -1.75927674117466   -0.86524536831559   -0.49099369500269
H          -1.39668297753703   -2.44214277819732   -0.23122027215140
H          -1.73217824513430   -0.44297780459961    0.37835777391285
H          -1.05497448174938   -0.43266381245219   -1.01562804957446
O           0.69669377737159   -1.96740115463061    1.45043043505614
H           0.02879031643368   -2.63595560345370    1.01067505825200
H           1.23136177873124   -1.64656144447003    0.58420542971218
H           0.11657638256051   -1.17176523516895    1.75273722194797
N          -1.21347552204585    2.71126590217534   -0.84724475153829
H          -0.71143599399814    1.96511831435901   -1.32751019302358
H          -1.05556677941191    3.56819325858781   -1.36195452625759
H          -2.20131717982491    2.49630161309020   -0.90270776066599
