    26
        -50.44991645  Gyration_radius:  2.48986004162 Dipole_moment: 0.419
 S           1.73749083873703   -0.95891500666435    0.16407528374752
O           2.22622830586412    0.35564453357494   -0.28067627741971
O           1.43517029978287   -0.95505093182925    1.57676064096669
O           0.66290816909577   -1.43436034403625   -0.67698007786701
O           2.94893458386581   -1.95384079987217   -0.03559549997768
H           3.48034657842573   -1.72846330668401    0.72009409905140
O           0.56527945408031    2.46810358522194   -2.28563314545374
H           1.37252705448593    2.11000850918116   -2.66223229975705
O          -1.40771189283477    1.49862853649565    0.83365372957590
H          -1.96000648758040    2.09373509888160    1.34268913639201
O           0.90261249215213    2.36668717472290    0.20958051799872
H           0.77064385235740    2.59588025900865   -0.79863514782110
H          -0.02067023000172    2.04337509532681    0.53206638698690
H           1.51844693780392    1.49947573182297    0.12094191593791
O          -1.13373241506742   -0.62674935122650    2.16583612384672
H          -1.31659695912074    0.64063728402903    1.39998180319008
H          -1.53290658243861   -1.33345532819213    1.60139640385825
H          -0.16823036379150   -0.77990986580099    2.10144834214736
O          -0.95059561466414    0.41652105677028   -1.73415634958825
H          -1.40384528761398    0.70799419561428   -0.93139938143766
H          -0.07982857718024    1.70663691060681   -2.24704148153487
H          -0.35656338620312   -0.30877158360285   -1.45220051895093
N          -1.85512601686536   -2.45008857707937    0.30986663812207
H          -1.90068175555161   -3.43447157710514    0.54024115352241
H          -0.95655089557803   -2.27921062049344   -0.14047031075389
H          -2.57754209220277   -2.26004067871228   -0.37361168477973
