    26
        -50.44772980  Gyration_radius:  2.51297938917 Dipole_moment: 2.774
 S           0.58490602227840   -2.00113768570436   -0.34488821700973
O           1.67627740226748   -1.60318348128771   -1.20187908132836
O           0.98760216192432   -2.03089591653061    1.07202786827080
O          -0.62835557983740   -1.24120492136175   -0.54454689050199
O           0.24301630703675   -3.50276630764029   -0.70309174211194
H           1.10194405294136   -3.90360339046963   -0.62378868528631
O          -1.43917352076843    0.31263688260168    3.07514768835928
H          -1.69966824886275    1.05883102253945    3.61722257318090
O           0.84970076026225    1.91623251356742    0.53065326695720
H           1.43519217006654    2.66152728987024    0.67340485593843
O           1.46349932166129    0.98420734902375   -1.73453656582124
H           1.10683873398214    1.53878762092189   -0.39455245885026
H           1.67250728375154    0.03657746193601   -1.59407934143849
H           0.62026204556050    0.97195275865319   -2.24704295260670
O          -1.78426328158045    0.91161692941411    0.56131801640046
H          -1.03741903652906    1.50901917071292    0.41643323346085
H          -1.51641179908097    0.07579355655389    0.13325038199950
H          -1.74965945626990    0.50589612169425    2.14627455192688
O           0.97983019418114    0.08223798286563    2.30552533767059
H           1.01699596289631   -0.87074766748851    1.77649271368626
H           0.98411585974044    0.81571396138195    1.58925084684604
H           0.04658503582989    0.11613797562482    2.73047196759590
N          -0.99258184763209    0.55463475496897   -2.78921255953976
H          -1.02620209957804   -0.22363947272558   -2.13206713047803
H          -1.10602536243742    0.17658286996969   -3.72100750706074
H          -1.78951307230151    1.14879262740576   -2.59678013501589
