    26
        -50.45282149  Gyration_radius:  2.40496296922 Dipole_moment: 1.359
 S          -1.55158584220137    0.79612025004806    0.84246614266227
O          -2.78385071958431    0.06740627231098    0.86947504938917
O          -0.39719993725846    0.11524373997850    1.38712249142735
O          -1.23428127377824    1.34437302372344   -0.49042539236325
O          -1.74650229650485    2.07521081381465    1.77025558496752
H          -2.66641435204987    2.28359299454296    1.64663133175858
O           1.76012356179433   -0.29037233790685   -1.88134993138900
H           2.13898707017210   -0.28653468168813   -2.76128957402870
O           1.88527229001112    1.42336404234702    1.64361876488677
H           0.98295730654613    1.16800474888860    1.91862421362962
O           2.03506759125941   -1.10652955358797    0.81250782965248
H           2.32041702285387    0.55208510015020    1.50702248432000
H           1.09879074596345   -0.97335869573998    1.02426040533414
H           2.09784841148161   -1.06787304178157   -0.15040607840452
O           1.18150037835357    1.90693197471506   -0.70537940142911
H           0.14532321776216    1.75930912782331   -0.62625461552291
H           1.55637889935958    1.80491457938915    0.29044877223966
H           1.50996274319500    1.08254696366546   -1.21774475808027
O          -0.72315266636337   -0.83491034340051   -2.02489517231268
H          -0.96758751471010   -1.53871066164959   -1.36948832948863
H          -1.09386578705589   -0.01972337123834   -1.64621320349587
H           0.78917685655896   -0.58547267961480   -1.98611992236854
N          -1.46757037371082   -2.34799103951546    0.04545113125108
H          -2.06641349581231   -3.15687496428761   -0.06776843305278
H          -2.03413993807130   -1.59251671201367    0.42789361648286
H          -0.76924191824252   -2.57823555900205    0.74155700439902
