    26
        -50.45282149  Gyration_radius:  2.40495969357 Dipole_moment: 1.360
 S          -1.82407552077113   -0.34977367496787    0.54898850259162
O          -2.77438676491839    0.72119210003998    0.54289368781528
O          -1.12575608153597   -0.58858040222764   -0.69520569309658
O          -0.85939629891392   -0.25907136384788    1.66220268363816
O          -2.63569165557202   -1.69118692751754    0.82558021785090
H          -3.33609643946824   -1.39621295090309    1.39770079606895
O           2.53616057767168    0.37726587902348    0.38310324420434
H           3.34624610038517    0.63765392367262    0.82334703491596
O           0.46366389633425   -2.68958797527017   -0.91264897706605
H          -0.40448833411731   -2.24095421917597   -0.90934616854957
O           1.17994021832757   -1.62004379889072    1.22986731681719
H           0.30341345444145   -1.10135871706672    1.48397416303365
H           0.92875052438774   -2.18475010495616    0.35788333253156
H           1.82028016616607   -0.88401797086604    0.91626180808938
O           0.64436084493257    1.92684391239233    1.09263475428517
H           0.14031504640473    2.25166756727580    0.30197696006769
H           0.04663828081309    1.28037959511951    1.50517416893115
H           1.83217591231941    1.06939035807643    0.64035739734584
O           1.30662685648288   -0.42176807141755   -2.03515381521210
H           0.40877517815122   -0.22426650045099   -1.72863273848957
H           1.90216253242055   -0.01217032639276   -1.39465137646239
H           0.98182766418539   -2.14555472966614   -1.54723563597507
N          -0.99457549295501    2.39879261558917   -0.96177600707187
H          -0.79848274651937    1.93831531878859   -1.84194958355908
H          -1.33980362344709    3.32752959702175   -1.17146212445998
H          -1.74858431494550    1.88026687671748   -0.51388393826606
