    26
        -50.45282149  Gyration_radius:  2.40491246125 Dipole_moment: 1.358
 S          -0.63998825147263   -0.64006997882091   -1.71215771010379
O           0.66375534445349   -0.68725429495483   -1.08698841837764
O          -1.35507714288648   -1.87909749932823   -1.77259101573243
O          -1.43840964708815    0.45968319706212   -1.13674966345273
O          -0.35685969873148   -0.19201197336047   -3.21343578468042
H          -1.12207925135625   -0.51755411005788   -3.67538741028750
O           2.20731568642223    1.45815919572966   -1.13230799901784
H           1.81218999374838    0.65157671214165   -1.51732081382532
O          -0.02391963600506    1.53165291796972    2.09207352525564
H          -0.37024297511743    2.09506318454252    2.78522946428487
O           2.17944062555636    0.04326640388895    1.12841425831974
H           1.54891317336131    0.48451276280465    1.71184745176500
H           1.64852934599639   -0.47756623781292    0.50713694808086
H           2.56948032990645    1.13076775129683   -0.27861210736542
O          -1.76251734084106   -0.22166419097542    1.47015933106450
H          -1.90211460031373    0.00718503834121    0.53558558256344
H          -1.35527560139790   -1.12603450027729    1.43955248019004
H          -0.72305971669851    0.80583081218978    1.93328771333288
O           0.00192367446239    2.32721312257755   -0.33947482704566
H           0.97212285190873    2.07691408368597   -0.71138867351088
H          -0.64151229033941    1.59870508189105   -0.73619204042591
H           0.02071842011178    2.12023294274455    0.66388509388944
N          -0.58154052359130   -2.55006788117215    0.91023049606486
H          -0.84549378883592   -2.47786860683823   -0.07113935718229
H          -0.93589756396145   -3.43120689304166    1.26194330324347
H           0.42959858419421   -2.59036702947999    0.94440016262261
