    26
        -50.45282142  Gyration_radius:  2.40498564667 Dipole_moment: 1.357
 S           0.76050196837247   -1.69467984751421    0.54945418521355
O           0.32075504256025   -2.89748017780620   -0.09099879364874
O           1.25184815803186   -0.65123504003092   -0.32387920049233
O          -0.23624360143995   -1.14263853996498    1.48730470957119
O           2.00524300390134   -2.08204535546957    1.46318321843335
H           1.79187260511542   -2.96634491940843    1.74157097294859
O          -1.51971338427200    2.08444964981540    0.25653384440378
H          -2.26538577545199    2.62125138300392    0.52801137480388
O           2.33325186093105    1.52185979103846    0.72247693596319
H           2.33988198895206    0.58844030103150    0.43324581176870
O          -2.28206559011077   -0.31957998370427   -0.09482188166316
H          -1.95020258430966   -0.67005180338102   -0.96185645362548
H          -1.73031215272027   -0.76751513807001    0.56867089976762
H          -1.88998113518588    1.15494419373904    0.05748848966885
O           0.18661939190994    1.26150052851627    1.97622747536763
H           1.14409777215004    1.44549504034510    1.53866668700156
H          -0.49934002528862    1.69294514988906    1.34918597890181
H           0.02373287312605    0.23098048028588    1.85911868983786
O           0.75940692218391    1.86508535406690   -1.40372549023327
H           0.82973909005232    0.90375715741651   -1.30342828545570
H          -0.10911525828871    2.10562809901998   -1.05663352061715
H           2.00005339670662    1.98930691724344   -0.07592947643418
N          -0.99537020976016   -1.41014221982306   -2.16473006160556
H          -1.47453097846698   -1.96309357455366   -2.86495719461484
H          -0.49596555307682   -2.05104960525492   -1.55004746047189
H          -0.29877783591175   -0.84978785007007   -2.64013143506996
