    26
        -50.45282148  Gyration_radius:  2.40495701671 Dipole_moment: 1.361
 S           1.33457843371931   -1.34763094950473   -0.39227190578779
O           0.97679879326270   -2.73149456557892   -0.30785636054759
O           0.50717197985072   -0.52715057689792   -1.24945556994194
O           1.48460778183848   -0.70871878727352    0.92958862754718
O           2.78686153879066   -1.28085069508007   -1.04094826287570
H           3.19809468739613   -2.07326340590639   -0.71241399706562
O           1.19576727700939    1.98360129331046   -1.70830133929636
H           1.25023198847281    1.01799820500886   -1.84796880943002
O          -1.13399442895377    1.83162232769779    1.44270950874481
H          -1.41654521336144    2.30853678768619    2.22409372225477
O           1.33586926813913    1.77173005628366    0.77833100729665
H           0.36481191962264    1.90909226793850    1.07556408316815
H           1.48497815583929    0.73672717998570    0.87145378433651
H           1.35344214639675    1.96418204634736   -0.27273468293728
O          -1.02680197371856   -0.65985731824433    1.95688658426257
H          -1.17983860612512    0.83976274516326    1.67723070248367
H          -1.48622935403177   -1.18497181316093    1.25128098219351
H          -0.08184610171682   -0.82204725048397    1.79530703150873
O          -1.40185399917638    1.49387275651474   -1.35240986110986
H          -0.98639826558485    0.61839666522600   -1.35965012360107
H          -1.58646254251783    1.69274870113092   -0.42557044323726
H           0.23256708523718    2.15815838100616   -1.80264923162613
N          -1.81655876809164   -2.08409527530552   -0.15907721338565
H          -2.06784563513887   -1.58329650354537   -1.00243991792942
H          -2.44561959806350   -2.87298365032620   -0.07166867578886
H          -0.87578658695429   -2.45006861302700   -0.29702963307664
