    26
        -50.45282146  Gyration_radius:  2.40497022316 Dipole_moment: 1.361
 S          -1.38362653081285    1.13665727124504    0.73837112742418
O          -0.62696102437894    1.20897058782630   -0.49246090527754
O          -2.75384848632375    0.74034371253362    0.61333677961648
O          -0.64388577491440    0.34743316562734    1.74233394259223
O          -1.37890183591290    2.62302286151713    1.30860841687579
H          -2.14643662522088    2.63241080202536    1.87051924296319
O           1.83524703015427    2.17007667873864   -0.45314591250463
H           0.86127671550620    2.24852637003744   -0.46419625919022
O           1.94675264804444   -1.70817486304518    0.11865549092137
H           2.48537402509855   -2.43075941276990    0.44364401697619
O           1.81821122821766    0.49918044488332    1.40567997163861
H           1.92749966059376    1.26587433527480    0.66912952836387
H           0.79276164887520    0.47607070039583    1.62903310737418
H           1.98508857785997   -0.38724463921260    0.91938293519780
O          -0.49756839385597   -2.14636817989359    0.68162327381461
H          -1.07292693309497   -2.00350783111106   -0.11416235660926
H           0.97671430785880   -1.96608347453809    0.30105949812166
H          -0.67857572425998   -1.37573575890817    1.24613399229487
O           1.39268510055910    0.05752608376160   -2.02010269967938
H           0.51659880833030    0.30288601744692   -1.68643838732725
H           2.00862770369690    1.56823945375903   -1.21133272497187
H           1.66477420380504   -0.71546057216671   -1.50909387372041
N          -2.07670390079857   -1.29462058591726   -1.29579563430971
H          -1.64124773186224   -0.84581261486699   -2.09214488035209
H          -2.45913886632910   -0.55592863544009   -0.70750849296709
H          -2.85178983078560   -1.84752190725442   -1.64112920713463
