    26
        -50.45282145  Gyration_radius:  2.40498387638 Dipole_moment: 1.362
 S           1.13505143873761    0.44630084172831    1.50497486388641
O           0.76868442150083    1.18664228741546    0.31740198982047
O           0.53320252706596    0.88093169729735    2.72934267991951
O           0.97902045965628   -1.00190358092410    1.26748372109969
O           2.70488189633239    0.66488302105881    1.65445605774061
H           2.84961287719141    0.50580125406402    2.58112731437085
O           1.98915794227771    0.66892952585597   -1.96936983836173
H           1.91511656415848    1.07998551343280   -1.08590853303306
O          -1.18632616608010   -1.61024600318231   -1.64991491852158
H          -1.60824129315643   -2.40559966603054   -1.97740268756534
O          -0.63555180463504    1.12985405263347   -2.08353072891411
H          -1.05895716971474    0.26190735545677   -2.09017426889393
H          -0.39625592917222    1.30278399169629   -1.16050006667584
H           1.14755390532204    0.93877292562375   -2.40056970627431
O          -1.67789643533006   -1.34517826856704    0.83435811752930
H          -1.98174655558451   -0.42237996157259    1.03618625450088
H          -1.47390754684158   -1.51055279059155   -0.67615880095873
H          -0.77242714914554   -1.37886087795854    1.18698833106241
O           1.31822988998762   -1.58725995794987   -1.12836439808265
H           1.69154825512795   -0.68399872426372   -1.56067762672160
H           1.24900313697704   -1.39200822534559   -0.09919534865362
H           0.34229648389823   -1.66441073038102   -1.43121497461070
N          -2.01250215080838    1.23194406326120    1.44800143326009
H          -1.15372482190538    1.24014672554698    1.99611023220495
H          -2.76504093777625    1.54832250629604    2.04739075008466
H          -1.90078182808335    1.91519304545003    0.70916015228029
