    26
        -50.45282145  Gyration_radius:  2.40489681865 Dipole_moment: 1.355
 S          -0.83233842980949    1.73341666737925   -0.23002407338217
O          -0.31540601619464    1.05485398266977    0.93830873199631
O          -0.04816896332715    2.82525004054752   -0.72324665449272
O          -1.17610396378638    0.75065060835105   -1.27589552397011
O          -2.23064527858401    2.33680674618571    0.23375018041849
H          -2.36321162730860    3.05153131135635   -0.37990413353269
O           0.49033804654823   -2.46977968129226   -0.61975860320321
H           0.60879207121112   -3.24999414076741   -1.16296383215106
O          -1.77596878017249   -0.80725258195040    2.11480994280241
H          -1.51659762144611    0.11482831201321    1.92092121376621
O           1.19115682557200   -0.40298360080546   -1.93169712215733
H           0.34779316095634    0.08067854075303   -1.94273572555117
H           1.79234922861460    0.17122886660623   -1.38991341059108
H           0.85316889066420   -1.68397539075513   -1.15973860050511
O           0.84232555573151   -1.27692877478131    1.92002409183218
H           0.95634564791364   -1.83194737578545    1.13794618587107
H           0.73073644497121   -0.37229675345488    1.59091541353076
H          -0.92070522656294   -1.21891841394147    2.37199293506758
O          -1.83217861532912   -1.44430094421701   -0.30135158585579
H          -0.95600583778540   -1.96117777917033   -0.42307576044571
H          -1.91424964604861   -1.24345574035405    0.74530822147112
H          -1.64071616000137   -0.51291007408987   -0.74623294879596
N           2.38983518179931    1.36158544157474   -0.32572376799067
H           1.61623912717240    2.01700550928042   -0.42543136780972
H           3.23949133949996    1.84261853600720   -0.59471826738653
H           2.46372464568342    1.13546669878309    0.65843446110106
