    26
        -50.45282150  Gyration_radius:  2.40496076322 Dipole_moment: 1.360
 S           0.30396532743750   -1.38462979268015   -1.31962058612564
O          -0.76335219371444   -2.27870645761887   -1.65369581120116
O           0.01544514701901    0.02712198280517   -1.44738455723499
O           0.89740324961765   -1.66289065923725    0.00269289112036
O           1.48104337231390   -1.65647634524605   -2.35651929776800
H           1.39858052292191   -2.58914948905114   -2.52459968128738
O           1.95895940233684    1.78838729892648   -1.11668517800552
H           1.44766519670352    1.12948241187151   -1.62588282858302
O           0.22141220990861    1.10939958813899    2.33291696848353
H           0.32305480474798    1.18452365763096    3.28258402688445
O           2.16167993756353    0.29510682446780    0.87754611463200
H           1.46618089007739    0.67997495298961    1.52420990608233
H           1.70820570517421   -0.57649746946326    0.50763453818170
H           2.19710626702976    0.96696507270315    0.04723685629506
O          -1.05318217467883   -1.02394787601677    1.77807652723791
H          -0.35617176901567    0.28466583907394    2.16847374157507
H          -1.78543916031208   -0.83926694632976    1.13435415276316
H          -0.38169263466637   -1.48492382361587    1.24709882755676
O          -0.42167813508944    2.41639835866734   -0.09116748281196
H           1.25798000230724    2.39750513950704   -0.79298581896122
H          -0.57473344064208    1.59305481864770   -0.57884525131266
H          -0.38394184694178    2.16959927568147    0.84174875052486
N          -2.68122718178932   -0.62474774163674   -0.30031367227418
H          -2.67545794368782    0.28709136950995   -0.74046828099426
H          -3.63570457710392   -0.96328732282914   -0.30837702120885
H          -2.12610098726779   -1.24475265689708   -0.88802783382081
