    26
        -50.45282140  Gyration_radius:  2.40505270223 Dipole_moment: 1.363
 S          -1.55085896749380   -0.06704700698593   -1.15923284893810
O          -1.70216270483508   -1.16832338593021   -2.06169713166404
O          -1.37112045471522   -0.40681698693789    0.23537137853770
O          -0.51130198111277    0.88987199288073   -1.58556444285708
O          -2.90834592215799    0.76338402722840   -1.20581378377347
H          -3.18799224324565    0.65371862256240   -2.10845393959551
O          -1.33619364314328    1.51484005900940    2.04984545358450
H          -1.77414906792532    0.88968984643553    1.43958832255812
O           2.31680144890887    0.86906532424660    0.77580438772420
H           3.19774711409852    1.24152675484132    0.72061777932360
O           0.26104198865153    2.31689312320379    0.30254599216715
H          -0.43031402899878    2.09661789106153    1.08722704751540
H           1.13053033231898    1.83259154875269    0.54610663315389
H          -0.09537151828754    1.79180398487754   -0.53376264423378
O           0.40902696191746   -0.47644017216080    2.37247281374462
H          -0.73613904013424    0.92721679909738    2.56137517929410
H          -0.13703325565591   -0.74873638553941    1.61962903128406
H           1.24249797473092   -0.16458207481186    1.99734216594915
O           1.82314031475995   -0.47024190606696   -1.33288836865592
H           1.45137847862257   -1.36146809848174   -1.10444812580214
H           1.05783259911497    0.02635035157419   -1.66918210780253
H           2.19771769374483    0.28474696026372   -0.05186248692408
N           0.38205798912058   -2.63936357356364   -0.74304771887986
H          -0.42847266518042   -2.26778945924965   -1.23596547668184
H           0.10599534315726   -2.77945068688957    0.22097785779637
H           0.59368725384990   -3.54805753944304   -1.13698496683892
