    26
        -50.44772982  Gyration_radius:  2.51298232724 Dipole_moment: 2.775
 S           0.34614201837540   -2.02213687950823   -0.50667732904801
O           0.77130118198586   -1.68238560562157   -1.84371932774439
O           1.46573843554908   -1.97431801770857    0.44983622829158
O          -0.79365257122839   -1.26518004372924   -0.04060583271314
O          -0.09926473984432   -3.53896697484254   -0.53735981269961
H           0.66991717576443   -3.94145930962786   -0.92605769630610
O           0.95345213273252    1.93659552233987   -0.12857103688574
H           1.50142722732594    2.68411170670459   -0.37263377376520
O           0.49431168603802    0.49863682849664    3.33657009499184
H           0.55849702565867    1.27641791616807    3.89284506006653
O           2.08892371879259    0.20566625407225    1.36977354272268
H           1.54590555978996    0.27116687707012    2.23783041809882
H           1.85098512792627   -0.77618883839762    0.95894341999741
H           1.67814703730846    0.89710745625369    0.73397993493908
O          -1.19815961611495    0.95617646564910    1.40696656815463
H          -1.19101004587369    0.09523628059940    0.94616770343221
H          -0.28274930205627    0.64118437255163    2.72632037289798
H          -0.67126730175331    1.53845859526425    0.84217260655268
O           0.23514629841161    0.87205837638901   -2.30277697732677
H          -0.75022322743457    0.83735081012609   -2.26147829228477
H           0.66524380188938    1.50504817420196   -1.02038752741953
H           0.51051027460215   -0.06766527833780   -2.25255466773351
N          -2.38289808029193    0.40284268625512   -1.79794559578584
H          -2.95485355714485    1.01336117287822   -1.22759503376728
H          -2.02825037508861   -0.33659440615190   -1.19286153244147
H          -2.98331989527982   -0.02652415110622   -2.49018152423783
