    26
        -50.45282149  Gyration_radius:  2.40495487308 Dipole_moment: 1.362
 S           0.23491660652743    1.91515985171293   -0.16979305345768
O           0.02285156984331    0.87581837134903   -1.15333600432765
O          -0.87701422386390    2.78151203226595    0.08156281739010
O           0.80679080474053    1.33785935831740    1.06216828016209
O           1.40057622550736    2.81636960383964   -0.77297180369254
H           1.26998701153609    3.64852023206216   -0.33093031724252
O           2.05584951913618   -0.63435750897190   -1.91160501020177
H           1.51254955021899    0.17777582547214   -1.92294624214894
O           0.27035059969890   -2.30584888623652    1.15369605532316
H           0.37197817229080   -2.94935820309942    1.85613562130721
O          -0.29249956946044   -1.85468184986698   -1.58080287080404
H          -0.27182649258282   -2.23721986463103   -0.69429421877157
H          -0.48679620974642   -0.91289353344724   -1.46049093947143
H           1.38682020946922   -1.33989632385747   -2.05927754775642
O           2.17032660752243   -0.68959972318046    0.58470097359967
H           2.24492693100785   -0.70115248131105   -0.48137929525648
H           1.67244434722340    0.20507790628038    0.81646663857910
H           1.49377374899694   -1.41926579104602    0.82935574926622
O          -1.11316907971920   -0.33951197583314    1.99210963529877
H          -0.34940325736807   -1.58002515318896    1.51417403008834
H          -0.46507191518834    0.37720403629229    1.88413985425600
H          -1.83195499750097   -0.11455202616247    1.34600032549504
N          -2.70876630671714    0.57017092958637    0.05407806436078
H          -3.67975141836417    0.80357838903867    0.22268178199835
H          -2.65291094568843    0.12725163105896   -0.85471355180476
H          -2.18497746739432    1.44206515336037   -0.00472897230947
