    26
        -50.45282148  Gyration_radius:  2.40488444346 Dipole_moment: 1.359
 S          -1.82031967635772    0.28031650985591   -0.59828953071727
O          -2.75551574624565   -0.80144946220143   -0.52399808521373
O          -1.14275385363438    0.62182206102831    0.63340318458352
O          -0.83917339482910    0.12124680197320   -1.68908040631444
O          -2.64696533880637    1.58485240778437   -0.98466828583981
H          -3.33503411960415    1.23753913936984   -1.54225088019323
O           0.41369515498270    2.75694956755648    0.71345661772062
H          -0.44805290642898    2.29653998506222    0.73246003680696
O           2.54624939191674   -0.36739149937200   -0.32044228344976
H           3.36582214498992   -0.64838773590852   -0.72931054654960
O           0.68571547652939   -1.99338689546182   -0.93531462885276
H           0.08508183654290   -1.38888569021539   -1.40343340231529
H           1.85531525202273   -1.08708558363994   -0.53373570310736
H           0.17503298934275   -2.26530984540531   -0.12911946012444
O           1.17501955369730    1.54059298239986   -1.33296291049222
H           1.82079067198069    0.83967920880890   -0.95656299714689
H           0.30944224471792    0.99148162394160   -1.55904661912236
H           0.90368608394020    2.16533026693748   -0.50921910108905
O           1.27197318986505    0.59268349038179    2.01439762012499
H           0.93020018273217    2.26966189563007    1.39387884414562
H           0.38147923283757    0.35918248599914    1.71179810055636
H           1.88231729008189    0.14524436076387    1.41441989310413
N          -0.97530317658957   -2.33424071739342    1.12728939054922
H          -0.79802107941208   -1.80524149522807    1.97223960091396
H          -1.31071441859710   -3.24929122135440    1.40271260047980
H          -1.72996696567447   -1.86245265118379    0.63137896155748
