    26
        -50.45282151  Gyration_radius:  2.40499908474 Dipole_moment: 1.360
 S           1.17988686157371    0.45987244040988   -1.46552308509561
O           1.44301109698080    0.00660026109913   -0.11715270852443
O           1.40677631345040   -0.49595865306604   -2.50721483070414
O          -0.15404598614679    1.08711078962571   -1.53796246193920
O           2.20308111478020    1.65675807228202   -1.70082121154293
H           2.27662247130854    1.68395436882419   -2.64887262718436
O          -2.20728135055244    0.09873308388477    1.35721910243947
H          -3.14302292041332    0.19490768572523    1.53884268812520
O           1.32018378525946    1.72946240564446    1.88400698823145
H           1.75333802129547    1.29769209525803    1.12188731414709
O           0.32467918407016   -0.70457572937403    2.32856842985230
H           0.72535398113413   -0.76105615081430    1.44795652720168
H           1.04757861325674    0.96261501591178    2.43606295199277
H          -0.62747074692447   -0.63433459718901    2.18331317924518
O          -0.80895496424232    2.11517464043885    0.63285519445708
H           0.08465187465621    2.06755187650019    1.21736062517157
H          -0.53507922170112    1.76620376014485   -0.31851859256205
H          -1.42527412802755    1.38201528486250    0.99695412917442
O          -1.88788414591606   -0.91753263850981   -0.95555177206140
H          -2.13499554962757   -0.37818077643552    0.45828875358923
H          -1.39475342920440   -0.19850722183493   -1.38590901772845
H          -1.24074012592974   -1.66908977887052   -0.92365971934688
N           0.19369520708878   -2.58987738411220   -0.96126611894145
H           0.72246869240835   -2.69434209378159   -0.10413535661662
H           0.72582941989550   -1.96780532152288   -1.56776564371801
H           0.15234593251408   -3.49739143501093   -1.40896271763472
