    26
        -50.45282152  Gyration_radius:  2.4048948995 Dipole_moment: 1.358
 S          -1.03032940053719    1.50610374993647   -0.64765239072798
O          -0.26021717632461    0.49259952088628   -1.33500233846474
O          -2.45412226395684    1.38988302432069   -0.74513943315599
O          -0.55659297118749    1.64643000280939    0.74299845260819
O          -0.62547215058413    2.87474331163962   -1.35305940939595
H          -1.37114676959644    3.43464638437927   -1.16480211773653
O           2.37016683648727    0.72211657119275   -1.46324352460611
H           1.45585076427431    0.92469292186858   -1.74230147421542
O           1.39808664915301   -1.31131464016512    1.74552161830634
H           1.71013075674832   -1.61112569157570    2.60026631350208
O           1.39443584849444   -1.72587193534735   -1.05190095625705
H           2.38567356392042   -0.26097236979847   -1.48309654947458
H           1.43326756264934   -1.87156409061190   -0.09798704464189
H           0.61308589955330   -1.17359609065150   -1.20555693128116
O           1.85782568836195    1.07886351294511    0.95712131521897
H           2.18823789903913    0.98662056619246   -0.05498507339021
H           0.86146196118252    1.40353264160589    0.89316281908054
H           1.78343395991496    0.12314213199640    1.31916265281053
O          -1.08272794156218   -0.75615234824403    1.89044511966745
H          -1.58145866449646   -1.17314587053447    1.14069998514336
H           0.39116913180449   -1.17509586244730    1.83700537401186
H          -1.05518400549075    0.18811304864915    1.66048534631676
N          -2.32927861990151   -1.45356932160078   -0.36541261552046
H          -2.50408341821755   -0.47801063424103   -0.60149135472958
H          -3.22020349502684   -1.93517039123587   -0.36101471396445
H          -1.77200965475814   -1.84589815195724   -1.11422307900941
