    26
        -50.44773019  Gyration_radius:  2.51348335996 Dipole_moment: 2.771
 S          -1.56233458347096    0.93641056355308   -1.07001189154321
O          -0.56469584379307    1.38558827068510   -0.12540885445408
O          -1.02268345849104    0.52002876136154   -2.34265352315017
O          -2.44469764237284   -0.09085818999407   -0.49002898607266
O          -2.50640995574190    2.17235250714377   -1.35460177349285
H          -3.05592161480389    1.81881004654797   -2.04582210912374
O           1.07161113517145   -1.87535781514935    0.09422482023628
H           1.46730664709816   -2.72651309582927   -0.09970281365119
O          -1.09543954947687   -1.01864445130723    3.06856477757085
H          -0.72462319601714   -1.57198326385104    3.75765689564896
O          -1.40594506664099   -1.94919280083144    0.71612828466749
H          -1.89692875604467   -1.14788501669578    0.16298146091183
H          -0.42427526952392   -1.95096523068502    0.42053734305025
H          -1.39994888868015   -1.63376943878366    1.69235422984313
O           0.82645679270266    0.28717476140729    1.88679643464274
H           0.32450066168925    0.82342172915963    1.24312231829538
H          -0.36761374603438   -0.40715859083787    2.76348657765891
H           1.22291876263592   -0.41930732703471    1.35828011804736
O           1.40754403484719   -0.47259399755769   -1.97836485125455
H           0.51718049788955   -0.15986025957941   -2.24454695312870
H           1.86659788114822    0.34385423044246   -1.66734231077092
H           1.21075032545253   -1.30817406416814   -0.75635039638392
N           2.18819396265977    1.87584662411137   -0.88191545501554
H           2.41131169554990    2.67479345797732   -1.46145380765528
H           2.74686448234500    1.93841521114801   -0.03983964400472
H           1.21028068188576    1.95556737874912   -0.60608987086838
