    26
        -50.45282147  Gyration_radius:  2.40492561739 Dipole_moment: 1.359
 S           0.43834542061741    1.87707048095333   -0.18880692090711
O          -0.66657941285469    1.20137311496858    0.45562437356576
O           1.41583547163338    2.45784806180061    0.68141824445786
O           1.03073681021432    1.00675827015240   -1.22301564954113
O          -0.23123166588506    3.07191583051483   -1.00040857111111
H           0.48745539925120    3.68801159855784   -1.09476637279008
O          -2.67770918466053    0.30716016555920   -1.00826055241026
H          -2.17437438380409    0.99819879403882   -0.53485612204915
O           0.04079280512562   -2.50087657810483   -0.68288977329969
H           0.36093976596539   -3.32050561942649   -1.06174636974827
O          -1.86168846330019   -1.25188194017614    0.99629095031913
H          -2.77543680683357   -0.39169315533522   -0.32331892281244
H          -1.26186232239621   -1.89917100869659    0.60401286116172
H          -1.34704139828384   -0.43663975069945    1.09463860043378
O          -0.65071084512258   -0.55322300194142   -2.19097382922168
H          -0.42377133577471   -1.40470705022044   -1.66802359174156
H          -1.57991199711488   -0.20264837262351   -1.79632058120598
H           0.06611987758299    0.14174129367530   -1.86659390258693
O           2.01107172610406   -1.11933326992034    0.14966876486776
H           1.84566691473546   -0.79047681515640    1.07115137203748
H           0.85587108188686   -2.02198630583632   -0.29934516080420
H           1.90619025289016   -0.32868248702892   -0.40639186190837
N           1.36641801975523    0.16011914124327    2.40300670906551
H           1.99135253338098    0.19498905768183    3.19920218746390
H           0.42384723574699    0.05328916334415    2.75703215133657
H           1.40967452171428    1.06335038246356    1.93367196184765
