    26
        -50.45282150  Gyration_radius:  2.40494186292 Dipole_moment: 1.361
 S          -1.23744697334479   -0.20176389893131   -1.47621818984917
O          -2.50348592510479   -0.83011968181452   -1.24705301869295
O          -0.92225418287171    0.92474893255362   -0.62518729651966
O          -0.11279104372494   -1.15726239652099   -1.48914193518072
O          -1.27536282464993    0.39825545466037   -2.95034998984349
H          -1.82183773986476   -0.22644131965280   -3.41521187227049
O           1.25691192162525    2.34421747841508   -1.09834183383650
H           0.32787371608860    2.08293784882050   -1.25171908662605
O           2.11853908165283   -0.56802411766003    1.38263270509139
H           2.83313404986710   -1.08743655967199    1.75333129677367
O           2.06982357070849   -0.01937698022238   -1.11581116770989
H           2.20701093524642   -0.22228515297888   -0.12076943471040
H           1.18068259302622   -0.52293769431875   -1.35643184368076
H           1.82831635164932    1.02001921585599   -1.17505436204784
O           0.06613018645924   -2.04222821014268    1.06999186369445
H          -0.04241469044315   -1.97301808492082    0.10624409079285
H           1.30368856395123   -1.18093120098188    1.34784685121258
H          -0.74348426242552   -1.60081818494135    1.43658201395178
O           0.66825371568632    1.85875949288584    1.45740608185115
H           1.19832346818341    1.09285034619804    1.71250257986669
H           1.27280233672506    2.51452463870225   -0.12991787891403
H          -0.08641123820764    1.50744639554671    0.96124635752391
N          -2.16024088299712   -0.66642037062473    1.59906431110995
H          -2.44545702879594   -0.70064376385110    0.62157630718490
H          -2.06744480970917    0.31057072656755    1.84821441512089
H          -2.91285889915464   -1.05462290527153    2.15456904329730
