    26
        -50.44772978  Gyration_radius:  2.5129849403 Dipole_moment: 2.774
 S           0.57686699749845   -1.86001148561259   -0.82040675550860
O           1.94684175807593   -1.51592486065229   -0.40145275978022
O          -0.12335581121979   -2.60191401114257    0.20095140322745
O          -0.14339549721223   -0.70578118744174   -1.30859347472518
O           0.75994930436549   -2.83411878840812   -2.05236232670653
H           1.16182757534471   -3.58394814619283   -1.62692668830106
O           2.35351868415724    2.37826443623728   -0.65596096934677
H           2.50225529223945    3.27319786886130   -0.34695802050492
O          -0.08242554012162    1.02921769918368    1.89997994733003
H          -0.11939535091439    1.25088253660902    2.83171969637341
O           2.24563404360247    0.45659707189947    1.01515920498109
H           2.14233318086843   -0.44134158661129    0.40478974365880
H           2.42356730166006    1.21498691512692    0.34743305745195
H           1.32032642221069    0.64945006658348    1.41223225754969
O          -1.63853361384128   -0.93661528219019    1.59902487071532
H          -1.10580439135792   -1.64762946935921    1.18419826824566
H          -0.71797439850490    0.22471430818628    1.78406265416578
H          -2.26855668095923   -0.66257813182225    0.89061561307356
O          -0.21065455884733    1.92114992452005   -0.77138149973379
H          -0.22059678159332    1.00925805451562   -1.12058581277467
H          -0.41678284586433    1.82359300561478    0.16865223050812
H           1.37919962790628    2.29894449028491   -0.85838985278929
N          -2.92810276701563   -0.22058097738365   -0.67111978052240
H          -2.04488776290391   -0.45177855052250   -1.12406567803856
H          -3.14633184294913    0.74021067157214   -0.90447175180485
H          -3.64552232410794   -0.80824454084610   -1.07614358647179
