    26
        -50.44773015  Gyration_radius:  2.51365383567 Dipole_moment: 2.766
 S           1.16945775856821   -1.19355898533299   -1.29177995502047
O           1.19165605246349   -0.90727881919600    0.12487477868299
O           0.02220419757579   -1.95825721674583   -1.71988968733969
O           1.34481054958306    0.02489110458174   -2.10112652890701
O           2.44679920782872   -2.07390791143078   -1.59680717311294
H           2.29595146742135   -2.29295752568628   -2.51006317145492
O           1.35358653846931    3.12110119872255    0.29620951191956
H           1.04819245373910    3.94492846147860    0.67904213185177
O          -1.84431008129976    1.12780325212801    0.02261516782990
H          -2.72049093708390    1.47377259780222   -0.15407466934572
O           0.42530815230333    1.12694625388247    1.69540543114434
H           0.82420262675936    0.36552615418563    1.23182454038984
H           1.13527330474544    2.39845716389500    0.94947114874906
H          -0.49974987461851    1.12673856547624    1.41280994018779
O          -2.04503319625474   -1.38232720124272   -0.16452946434036
H          -1.37515278927894   -1.66095924307190   -0.82402555085962
H          -1.70217121432787   -1.73504513944184    0.69105557089219
H          -1.93303185939252    0.10287827004990   -0.05685657576869
O          -0.00735195182285    1.98384991152054   -1.53432302580841
H           0.59009205752204    1.11962026754007   -1.82746121220207
H          -0.77513454555173    1.62720654031480   -0.95614830455416
H           0.59323673460579    2.51824157767646   -0.89686197332794
N          -0.62092036641848   -2.17144215467162    1.99786760099164
H           0.18551667811206   -1.87971333707764    1.44715229478084
H          -0.50570044148470   -3.15239982594188    2.21777099434054
H          -0.59724053215055   -1.65411394939896    2.86784816026898
