    26
        -50.45381464  Gyration_radius:  2.6476036038 Dipole_moment: 1.731
 S          -0.72726841301331    0.33178776120377    0.09830568572710
O           0.08091246885180   -0.80250753370230   -0.31512359525861
O          -1.96815127694209    0.40799356779427   -0.77583394401932
O          -1.27391087725642    0.07386155196978    1.49710152987666
O          -0.02907590108609    1.58680451426045    0.08875800000603
O           0.96525294390647   -1.92953828227823    3.46601446676496
H           0.60808411458633   -1.53068679067708    4.26115256756867
H           1.36933066057691   -1.19245778280591    2.93909784185005
O           0.52821772516643   -0.88140225728384   -2.95526869044207
H           0.31603934814420   -1.76914253913025   -3.24958892655758
H           0.47895775005033   -0.89246498943962   -1.97933685972001
O           0.01558291110868    3.13278171006261   -2.09714518723467
H           0.13082247904903    2.64103726898140   -1.26051836892084
H          -0.46329284773185    3.93327671446106   -1.87464741090564
O          -1.30293795769126    1.04746267667382   -3.07734146820102
H          -1.75088195044437    0.68527714777740   -1.79308108352168
H          -0.82014477121843    1.89143652785548   -2.91001687731018
H          -0.60743711356657    0.37250108661057   -3.24991563766003
O          -0.92567641743615   -2.39188919013678    1.69317718579121
H          -0.23663083164185   -2.39207178666452    2.41038441820077
H          -1.26418257800888   -0.95495256869651    1.64795993003893
H          -0.43783941858712   -2.38859313986090    0.85930163071366
N           1.79311169140565    0.07462570775128    1.86221146483263
H           1.57367860782764   -0.34426676185274    0.96389989871443
H           2.75181221259621    0.40009588865823    1.82047701245879
H           1.19562743135017    0.89103147846294    1.92997642719382
