    26
        -50.44773018  Gyration_radius:  2.51351175903 Dipole_moment: 2.768
 S           0.25615089430502   -1.82616240463119   -1.03079660997933
O          -0.40179901879469   -2.57443849883377    0.01391644756753
O          -0.37823669359826   -0.56508160053736   -1.34131489247008
O           1.69549113286246   -1.66528465241197   -0.76170681141724
O           0.18146838566034   -2.70654249613257   -2.34188698067449
H           0.52466290399009   -3.53291841812348   -2.01932081167642
O           2.53747109273982    2.15982392594673   -0.74367127801376
H           2.82055621619437    3.00150295017658   -0.38316628717820
O           0.25244858741336    0.85834307113960    1.96814350328673
H           0.34487321304452    1.00129173552583    2.91134842881372
O           2.38371678419310    0.11487117153342    0.76963818761860
H           1.53750284445555    0.37080076486945    1.28855566641324
H           2.10648312161142   -0.70314965732276    0.10380326839521
H           2.57809441494129    0.90866411862106    0.14924671680725
O          -1.54861687341962   -0.89241546356584    1.71055205829842
H          -1.15152593614701   -1.61541194905867    1.18044265685759
H          -0.48322079215269    0.14144131793307    1.87025527770027
H          -2.21762885961392   -0.49026097091355    1.10657654025729
O          -0.05954050929286    1.99093336798755   -0.59450520582378
H          -0.21913158225293    1.12192906253524   -1.01061372278080
H          -0.17288392374706    1.83188690198988    0.35284901345039
H           1.54443036686605    2.20274193208531   -0.83730400618448
N          -2.99264529007195    0.15627473582967   -0.32451474951711
H          -3.12483769651060    1.15136618328839   -0.45666388882189
H          -3.81407768359140   -0.31513504512455   -0.68086959851195
H          -2.19920508908034   -0.12507006280520   -0.89899292241472
