    26
        -50.44773022  Gyration_radius:  2.51357177129 Dipole_moment: 2.772
 S           1.21465060212483    1.30160764353079    1.13719200786879
O           1.21724777480130    0.84965250148680   -0.23578485967824
O           0.09424636493751    2.14640645159019    1.47663996035951
O           1.35959052405787    0.18237298942389    2.08419036379586
O           2.52037046731860    2.17190793089344    1.33090867917303
H           2.38429833844997    2.49980289117862    2.21339161751285
O          -1.87696735976768   -1.06586215997110    0.11890030710872
H          -2.76155693725799   -1.36202064637332    0.33889488955717
O           1.25829788434452   -3.17298060753653    0.06680406713550
H           0.92558833563025   -4.02652149507276   -0.21483084988319
O           0.37782975890109   -1.33003948176786   -1.55321677421366
H           0.80307088862408   -0.53210727110798   -1.18403760171721
H           1.05598933913695   -2.52594135774968   -0.66602383225230
H          -0.54438186100021   -1.26859487349527   -1.26795992529402
O          -0.05357702722738   -1.78828725410296    1.75721078229400
H           0.57102136666506   -0.91408221804048    1.94415344174913
H          -0.81529308146015   -1.47900344623085    1.14471160868234
H           0.52598555080442   -2.41155268232530    1.18416931840118
O          -2.00165482906409    1.45373042272915    0.01024960896005
H          -1.93462327658719   -0.03645830370660    0.07772231265555
H          -1.31831086951090    1.78781694689800    0.62903189684828
H          -1.65564993448971    1.69233672499355   -0.88268515704303
N          -0.57284222973446    1.93747166730459   -2.23729300236679
H          -0.57165274320756    1.31957875641499   -3.03934593434910
H           0.22929105931238    1.68945301125321   -1.65959674189996
H          -0.43096813580338    2.88131387977880   -2.57339618340315
