    26
        -50.44773022  Gyration_radius:  2.5136089314 Dipole_moment: 2.768
 S          -1.37433735148855   -0.68571001780191   -1.44943319944456
O          -0.09539343412832   -0.01388677977984   -1.49799844558815
O          -1.30900160526891   -2.04125477567914   -0.95702102803976
O          -2.38444475157558    0.10785530682545   -0.72818955578035
O          -1.90223175369440   -0.76386449924235   -2.93778563541958
H          -2.68040876302122   -1.29838511687714   -2.82153259978510
O          -0.62861480825242    3.26095594478520    0.79611721497101
H          -0.30964510306360    3.85179118458621    1.47999427225915
O           0.39506305488027   -0.12500963812283    2.12138879476797
H           0.43711599220672   -0.38975199122570    3.04158000899380
O          -1.75826247221696    1.06721585431415    1.43411124780069
H          -2.07518844910725    0.63157600828474    0.48611161309326
H          -0.92656953966134    0.54736720629025    1.73266041298160
H          -1.42515992760950    2.00817122152630    1.19664153893996
O           0.68038241086148   -2.24631911090498    0.78181125661844
H           0.51076998462894   -0.99574028928132    1.57991459684254
H          -0.09603157967156   -2.29919473344813    0.18532307815955
H           1.43861962515384   -2.07024687622072    0.17512410219875
O           1.28651307541336    1.63277305705687    0.10527212426451
H           1.29874449937733    1.03887495564205    0.86865809277581
H           0.85271467034852    1.11629141720310   -0.60099447582045
H           0.16737691951435    2.78066473749967    0.43231185965888
N           2.41198227540827   -1.41591854787306   -1.12561435080780
H           1.60516455540657   -0.91607636355428   -1.49699126035389
H           2.74012949457924   -2.04880171034358   -1.84374452395028
H           3.14071295097949   -0.73337641365870   -0.95771514933921
