    26
        -50.44772986  Gyration_radius:  2.51299289861 Dipole_moment: 2.773
 S           0.44077263688259   -1.94955132834981   -0.68552895154553
O           1.82104981743605   -1.47106964959783   -0.87690483920891
O           0.25171154111012   -2.52396889447369    0.62528220549577
O          -0.53290228738345   -0.93899553879153   -1.03205788485984
O           0.26755897456578   -3.12295256821358   -1.73110136916641
H           0.87887855203374   -3.76265763638632   -1.38208250817790
O           1.66629689362864    2.32572211556073   -1.85506157205299
H           1.81638716216566    3.26802702337039   -1.76515453148538
O           0.50464797533708    1.35463117427753    1.60805606965281
H           0.78706394837163    1.74128224925147    2.43833917834985
O          -0.69287081259161    1.73580904473719   -0.91544387068120
H           0.70112620023291    2.16497623240425   -1.65705862296019
H          -0.72780279134294    0.77596498436624   -1.09178835585066
H          -0.52779629169470    1.80235941385787    0.03533381014036
O          -0.82182598426188   -0.70374269011333    2.22464908540082
H          -0.40203580798037   -1.45288747017239    1.75139314870226
H          -0.03446839970898    0.51372420670797    1.86651246986351
H          -1.69421790747195   -0.59390963613482    1.77660254449579
O           2.39487258360712    0.73916376031042    0.00209092694110
H           1.66410935129708    0.95779394812844    0.68706315818181
H           2.17658779942810   -0.25907437502358   -0.37912332176304
H           2.22928524815299    1.37015957249906   -0.78975626597872
N          -2.92551797505768   -0.47687679246050    0.53572291935183
H          -3.32113443468175    0.41331305602823    0.25972747718421
H          -3.67008892303412   -1.16210715043708    0.52865745058922
H          -2.24968705915969   -0.74513308108270   -0.17836834027044
