    26
        -50.44772982  Gyration_radius:  2.51298321027 Dipole_moment: 2.774
 S          -1.32385494373594   -1.51263935841522   -0.65198618238247
O          -0.25832305513459   -2.47689165768227   -0.78888282887482
O          -1.87089132617138   -1.49551416794671    0.71591317643214
O          -0.98065141031085   -0.18596511595956   -1.11187835967597
O          -2.51639789152753   -2.01305499657914   -1.56168433997012
H          -2.61659938022462   -2.90513226512813   -1.24722773648276
O           1.61803874183419    0.30753260321771    1.40116188438452
H           2.35645846666759    0.19458194507905    2.00169565319906
O          -1.59826309169886    2.16964004959615    2.08898769514324
H          -1.30709721457988    2.87806937936395    2.66510232386649
O           2.07149328590608   -1.23778024499403   -0.54377212292364
H           1.28428426302875   -1.81688324216250   -0.62355271139504
H           2.03130904239768   -0.66406534280932   -1.34570411790723
H           1.80794573786061   -0.32752843836163    0.61042314155847
O          -0.67932921890273   -0.18670101001428    2.40535334599538
H          -1.21865245073031   -0.79828549408669    1.68105899711053
H           0.26006267331887   -0.03848308691633    2.02244309640114
H          -1.13813782079820    0.73049907383030    2.37534853343440
O          -0.05791041811570    2.07975785192261   -0.01253081599581
H          -0.47349084577497    1.35352628457386   -0.51599851251533
H          -1.10991477043658    2.27828675314871    1.22514456897667
H           0.73966035918032    1.68636488697485    0.36796872277327
N           1.42658641207588    0.36585884775722   -2.62748800943809
H           0.46777712490373    0.20588273174142   -2.32131512767707
H           1.50307309262425    0.04269467253998   -3.58339209627509
H           1.58282461836339    1.36622932030623   -2.62518816745697
