    26
        -50.44773012  Gyration_radius:  2.51359149638 Dipole_moment: 2.765
 S          -1.09880852373591    1.80160874866595   -0.09041940428405
O          -0.37692524646936    1.10339605678676    0.94910273425006
O          -0.25761140684971    2.33092850477525   -1.13753896225593
O          -2.20032390854004    0.98892222661475   -0.63512194059564
O          -1.80490505824191    3.03689747984885    0.59888047095262
H          -2.16252452838305    3.48237347764851   -0.16166128817709
O           0.82524103578415   -1.52248097732620   -1.29439983118266
H           1.18135881513392   -2.01387044965852   -2.03625978851725
O          -2.01682562612165   -2.58362177417065    0.95713436944950
H          -1.90967816215054   -3.53560315469075    0.98512096787289
O           1.86738562346332    0.77371693248024   -1.42589826923258
H           2.28961597394580    0.91814270003685   -0.54559629805564
H           1.25356424405129   -0.58575085119003   -1.35493363074661
H           1.12235676537375    1.41099708283891   -1.44133918636547
O           0.27212776944243   -1.44597883230959    1.46914275375018
H           0.02683951655046   -0.50103029865459    1.44134811210027
H          -1.18043078438426   -2.18587832448700    1.32985675499575
H           0.73805394384929   -1.60115042207068    0.63579927041778
O          -1.72283277844147   -1.33232711716198   -1.24386652890230
H          -1.96846243416068   -1.86094457920698   -0.39959866154429
H          -1.96021108851398   -0.29452883491886   -1.00640045180042
H          -0.70207341970936   -1.39024395569284   -1.31837165025513
N           2.51010579257571    1.19217711932674    1.16997457082915
H           1.50564006686760    1.31127384267490    1.29472023224638
H           2.96128373891839    2.04873339343443    1.46439878588965
H           2.80803966974220    0.45424199640513    1.79592688916000
