    26
        -50.44773019  Gyration_radius:  2.51358278726 Dipole_moment: 2.772
 S           0.65338814445100   -1.95782202446490   -0.44742817540779
O          -0.16534654311058   -2.53525263965727    0.59203030493362
O           0.00152822944367   -0.90671879872179   -1.19546209386992
O           1.96692049064478   -1.53281236977638    0.06661023664453
O           0.97247620366951   -3.11561683395675   -1.47583687813682
H           1.30075175177952   -3.78786368287856   -0.88843668671086
O           2.43938905973118    2.27243464339930   -0.73661730736587
H           2.55486309615844    3.20681226376366   -0.55733166879964
O          -0.29731874942079    1.31913934334186    1.68744763371723
H          -0.44368531747491    1.68781118501506    2.55994982918021
O           2.11431665421023    0.63609130874870    1.18999591869060
H           2.07566094318005   -0.34565458002858    0.71742079355388
H           2.37839910593536    1.28310448426682    0.43866069625812
H           1.14994072923453    0.88027795539134    1.43813760761108
O          -1.82087951068406   -0.68795581967009    1.52494168929595
H          -0.92099495624058    0.49928543189666    1.62806311415117
H          -2.36275745934581   -0.53793126992176    0.71385326436647
H          -1.24802878222199   -1.44903791718277    1.29267888125938
O          -0.09440278913510    1.77106259409785   -1.08843596030517
H           1.49650655477186    2.14917055268746   -1.04084591397059
H          -0.07351131021945    0.81543204197430   -1.28874612163963
H          -0.41423537051967    1.82173034254496   -0.17700799608401
N          -2.83411481721137   -0.36161172930977   -0.96378247900334
H          -3.02310458755492    0.54399061789457   -1.37518191062116
H          -3.50085478530983   -1.02019821026947   -1.34542566802517
H          -1.90490598475774   -0.64786688918430   -1.26925112972603
