    26
        -50.44773024  Gyration_radius:  2.51361290487 Dipole_moment: 2.770
 S           0.76173465099842   -1.64668291911907   -1.08096147323156
O           0.68670766983731   -2.51411820979868    0.07065425467461
O          -0.37677126037923   -0.76914150841275   -1.23297274790590
O           2.03498744405844   -0.90689016514165   -1.12369707900713
O           0.78863430977891   -2.58027521410354   -2.35675746385760
H           1.49368808624736   -3.17513882295358   -2.12482878745856
O           1.23842879363504    2.92648025175976   -1.24948817066863
H           1.22227775191666    3.83723814090782   -0.95150012106444
O           0.27174518813314    1.03816759567156    1.87678689807900
H           0.48585072588403    1.27848100042636    2.77957550730895
O           2.23364282791124    1.11443784668287    0.24114347437394
H           1.96069945617787    1.86877527762133   -0.39851418691038
H           1.47883561695252    1.05202663152283    0.93220660991658
H           2.18472478565784    0.20438432159820   -0.35746897438113
O          -0.67428818232216   -1.30006404956019    1.99346138461981
H          -0.11248273507793    0.08205773366986    1.93131017387107
H          -1.55573978943090   -1.24609271880731    1.55284605613077
H          -0.13410010036077   -1.84410289390805    1.38220775791182
O          -0.98037610566241    1.75203579727557   -0.54665309811014
H          -0.85384209309242    0.86168567376541   -0.92751444940070
H          -0.82740181002948    1.63538120140798    0.40127895864333
H           0.31638288903875    2.56399303757852   -1.12669051829241
N          -2.79714771244757   -1.07648492055463    0.32908368702454
H          -3.34785713215013   -0.23168024196490    0.23894518283097
H          -3.40748422711611   -1.86414769305566    0.15299035096693
H          -2.09084906815863   -1.06032515250772   -0.40544322606522
