    26
        -50.45381459  Gyration_radius:  2.64763841313 Dipole_moment: 1.729
 S          -0.10066540960441   -0.79741208533190    0.04239915736972
O          -0.66558347093101    0.53695236877697    0.14762216632545
O          -0.46027194196383   -1.38785867889846   -1.31550432544225
O           1.32399540462909   -0.84918408095520    0.21676427429641
O          -0.79111825751170   -1.71367534051822    1.03906780590735
O          -0.73793081841705    1.14329769066045   -3.84930844533135
H           0.03995957980485    1.20624735185111   -3.23678004410668
H          -0.50848886896163    0.49086803323944   -4.51308164855660
O           2.41438470697303   -1.19950019115444    2.63731925759044
H           2.85075294426566   -2.05322990648823    2.61844765450647
H           2.15174598281897   -1.00573060365086    1.71618172225376
O          -0.76154650386834    1.45082616321025    2.66382349524170
H          -0.69787011041319    1.23069874167632    1.71379199390428
H          -1.64878261811081    1.78520229463374    2.80789397302978
O          -0.14195856711387   -1.04910746426855    3.33807890872748
H          -0.54998947110284   -1.48137690329972    2.06221634594025
H           0.84125463162165   -1.10947972668829    3.28434331006765
H          -0.35192963201938   -0.08784766943726    3.30614421248106
O          -2.32311722129049    0.12422382599365   -2.01047667730340
H          -1.87944700438403    0.56801247494683   -2.78207651712041
H          -1.30248771274569   -0.88365188941347   -1.65881396497056
H          -2.14934097011553    0.68903760075383   -1.24620741753513
N           1.21471229890147    1.11931645693625   -1.98902656187184
H           1.58939196460419    0.18930237368558   -1.83829941975482
H           0.65035795890809    1.31699601621908   -1.16858673240711
H           1.99397308603900    1.76707311752085   -1.98593252326576
