    26
        -50.44773025  Gyration_radius:  2.51361097125 Dipole_moment: 2.769
 S           2.06897238698362   -0.00072600469278   -0.42252075476004
O           2.35430121800589    0.89695361352976    0.67162186946902
O           1.09420627313818   -1.02094085705940   -0.10893175535845
O           1.72067947060582    0.73235838592498   -1.65199307095121
O           3.41812683007658   -0.75165858568106   -0.76296977784161
H           4.01159964805070   -0.01425970211614   -0.85636068677658
O          -1.80448117052828   -0.47729321508399   -2.85924940419591
H          -2.73540976118029   -0.41212642699895   -3.07766747174700
O          -1.61789354895222    1.36772909711202    0.43240859890657
H          -2.14720652312155    2.12177574779003    0.69670210513451
O           0.19080822915853    1.15074548105667    2.18097049850200
H           1.04298014836728    1.16758602723797    1.69629454776771
H          -0.88047563953042    1.28553342513703    1.14951651414658
H           0.12118651824780    0.22425078728663    2.51376933904434
O          -1.55372101145250   -1.32365256722896   -0.40636360038256
H          -1.74300032242239   -0.96821691592846   -1.99211804779644
H          -0.58219951293016   -1.37483532922910   -0.32081985510811
H          -1.79961084724114   -0.52645939787654    0.08311566875546
O          -0.57725372118272    1.53766212450078   -1.89530168263246
H           0.45998480763120    1.21418357958169   -1.80468072825400
H          -1.04820659107995    0.78206145439177   -2.40528561396215
H          -0.97336881370329    1.52119494878930   -0.94974757834780
N           0.18546344598873   -1.52415254734995    2.59538104758242
H          -0.65071153077193   -2.09353656444714    2.55393466289401
H           0.81692475321092   -1.94949086604990    3.26193966938006
H           0.62830526462785   -1.56468568259608    1.67835551653539
