    26
        -50.44773014  Gyration_radius:  2.51352310478 Dipole_moment: 2.780
 S           0.50078544158616   -1.25278886227232   -1.62603221398805
O          -0.16190842487108   -2.38997250358527   -1.03257598378663
O          -0.22303979529824   -0.00947873100405   -1.48552779937491
O           1.89429464687556   -1.13213454447266   -1.16387827778721
O           0.60804754410007   -1.54242115544766   -3.17679275469937
H           1.00123232768613   -2.40846116975652   -3.16711044336831
O           2.37213246910568    2.41785613977065    0.42220875399166
H           2.54859860578624    3.06397618832943    1.10775581473720
O           0.02527404431160    0.02311234553449    2.16206207540165
H           0.03449923917940   -0.21484318236489    3.09047165939633
O           2.29922448898046   -0.06322393807806    0.99999322690774
H           2.46350538806616    0.92068398705172    0.75943220045435
H           1.39647142956605   -0.08134477753300    1.48595216048310
H           2.14941715254412   -0.56660224398320    0.04502750039024
O          -1.57881809179620   -1.58270396239511    1.05606110191161
H          -1.07874681295835   -2.01316903948818    0.33062133696718
H          -0.63029130183514   -0.63735326603676    1.71610466833654
H          -2.23673263658284   -1.01341537902749    0.59012897005392
O          -0.20194645640368    2.05742694103714    0.22281696709308
H          -0.24826145435619    1.41568319775137   -0.51193109603996
H          -0.36973064247804    1.53109017595252    1.01679960823474
H           1.38899976160748    2.43802296473312    0.24970738468306
N          -2.96231586974699    0.10161426081993   -0.54902616512206
H          -2.10620505403716    0.11596123920406   -1.10177251341899
H          -3.17639208304593    1.05849728567567   -0.29668919746589
H          -3.70809389598628   -0.23601197041397   -1.14380697399217
