    26
        -50.44773021  Gyration_radius:  2.51352058398 Dipole_moment: 2.773
 S           0.29025523058332    0.89230276070476    1.89256892734873
O           0.42859104422591   -0.44792280660905    1.36912414868807
O           1.25352646676080    1.83129699006996    1.36853798069667
O          -1.08828374709511    1.39452928203595    1.75920438251492
O           0.54213125742154    0.79867827396218    3.45067751523287
H           0.53051426969421    1.71998073018027    3.68687629014823
O          -3.17517185309748   -1.22581070040807   -0.26940167664954
H          -3.69541705505894   -1.57137976270081   -0.99635456486844
O          -0.35495037243453    0.53465693937269   -2.06392822477029
H          -0.40721543835116    0.98487773999185   -2.90842204774563
O           1.90274645212939    1.13256236928466   -1.10405652894577
H           0.56832587424322    0.78433096329211   -1.67679079323875
H           1.73027756968938    1.51351396198560   -0.21715811156042
H           2.34060331285332    0.26870097027352   -0.91417118097750
O          -0.67312405273170   -1.86684669128340   -0.62172190551537
H          -0.42973502003274   -1.25160089207550   -1.32732922523952
H          -0.26474145655609   -1.49234659436671    0.18253000789601
H          -2.26813415849644   -1.63700103199199   -0.33973697594936
O          -2.20389199802795    1.12680866363744   -0.40205201533800
H          -1.45289119213233    0.94544313512302   -1.07587464057452
H          -2.70990555289986    0.23934098483614   -0.30692060611115
H          -1.72453154115180    1.28390828268771    0.56475335072422
N           2.72157265207001   -1.28106321224562   -0.19262342061165
H           3.61961548606926   -1.39229024103047    0.26025887823052
H           2.49632465752807   -2.15451846107840   -0.65247536044872
H           2.02350917479512   -1.13015164365006    0.53448579705992
