    26
        -50.44773021  Gyration_radius:  2.5134699694 Dipole_moment: 2.772
 S           0.35887680877632   -0.80019637968953    1.92118240403088
O          -0.40080081118803    0.31921200391118    1.41211781937613
O          -0.17066579437783   -2.09006562499162    1.54674576580606
O           1.79125071146795   -0.68444617107627    1.59727883873298
O           0.28810869049776   -0.71632243993018    3.49849791274561
H           0.71981626660046   -1.52925907559516    3.73816223787917
O           2.28967450723686    2.42452930953056   -0.73258990862470
H           2.51696967744996    2.90458539997013   -1.53034391507927
O           0.28582763657952   -0.47490518665539   -2.08911734362313
H           0.41771027699161   -0.91766366972701   -2.92884485526937
O          -1.36300010846376   -1.89833296921569   -0.81211433351133
H          -2.09881045242344   -1.28774462465525   -0.56758482032985
H          -0.38706985399239   -1.06207638281465   -1.57216784938766
H          -0.93394429685579   -2.11065769388402    0.04362685673758
O           2.40401363235733   -0.12097561163030   -0.70388602661696
H           2.16358608519932   -0.39837620657378    0.32254695714645
H           1.56886671227227   -0.31862741715011   -1.26467570344464
H           2.49144183392385    0.90150533309003   -0.68987246804797
O          -0.26953574492249    1.93020685415180   -0.72739124480644
H           1.29297880800624    2.41107121709212   -0.67547400770989
H          -0.31492230203788    1.22310252079099   -1.38585910327599
H          -0.37462178508750    1.47467746863837    0.13011376934104
N          -3.00858663566502    0.00199796972957    0.19151619003879
H          -3.80215574333863   -0.24570841156287    0.76844044042761
H          -3.23866097545687    0.85584016443343   -0.30156072673062
H          -2.22634716353974    0.20862964382002    0.81125309419747
