    26
        -50.44772978  Gyration_radius:  2.51298569248 Dipole_moment: 2.774
 S           0.23275028315615   -1.93149934581263   -0.82498053013773
O           1.68057778404059   -1.74002904436903   -0.63034621308907
O          -0.38045873202543   -2.56507249792439    0.31802438860627
O          -0.42069764561656   -0.71209400374836   -1.24380160298736
O           0.11443562381501   -2.94634219012610   -2.03171702849329
H           0.49079182182415   -3.72852121420508   -1.64274745168401
O           2.47515153615949    2.07422033961916   -1.09396769206742
H           2.76850813575512    2.95220543010911   -0.84578815668234
O           0.32596552855654    1.07213362801307    1.84939076901312
H           0.45763072141011    1.31642476576877    2.76679316571020
O           2.41174844119312    0.21418252555835    0.64767886966456
H           2.11632040390876   -0.67849057413336    0.09506685646069
H           2.56840792975014    0.93234690504811   -0.06811982566284
H           1.58584050328793    0.52165311749648    1.17150210315150
O          -1.46736736181471   -0.70560108585680    1.86223778624497
H          -0.40555835633437    0.34459722148189    1.86160607666247
H          -2.16426132441069   -0.37540510927180    1.24646078012831
H          -1.08742910678609   -1.48237151801124    1.39996477139391
O          -0.11108448807151    1.91572615705224   -0.80493466728260
H           1.47860346103148    2.10430897789107   -1.14446327385990
H          -0.27626545386700    1.00392286290159   -1.11302459987365
H          -0.17983120164849    1.86285976997825    0.15846834293043
N          -3.00259009362700    0.10677738101228   -0.21439303763078
H          -3.14557133352815    1.08121369460824   -0.44941210552525
H          -3.83475476649823   -0.40210167712798   -0.48389732514651
H          -2.23086229906466   -0.23504451530812   -0.78560039007432
