    26
        -50.44773017  Gyration_radius:  2.51349658346 Dipole_moment: 2.774
 S          -1.59515225756326    0.89982668738996   -1.05360871736681
O          -1.35197982457411    2.18507827128220   -0.44265339031846
O          -0.39409197068625    0.19361198944686   -1.43831135119759
O          -2.48354446170004    0.06353253012086   -0.22800668575790
O          -2.40749206014778    1.17014275993522   -2.38283577768955
H          -3.11446141598038    1.71257739802352   -2.05012525792910
O           0.81919390928776   -0.13581225740065    1.99591395616133
H           1.06069839485880    0.01878782749068    2.91047128191788
O          -0.64733110751525   -3.30539275787704    0.55543766190382
H          -0.23223069702660   -3.98312435193755    1.09105672492608
O           1.18134096548659   -1.67626465654784   -0.33743782039585
H           0.08582753056898   -2.81418412874697    0.08865646443551
H           0.64557671811843   -1.06577798507198   -0.87980730795118
H           1.38134771835708   -1.17620798137964    0.46605565143248
O          -1.49458014056149   -1.16245087984261    1.64448527675492
H          -1.27194490540116   -2.08054486617590    1.24424516325424
H          -0.59090061494843   -0.71097266066121    1.81894703638468
H          -1.96889843950050   -0.60830844450114    0.83381633940036
O           0.95588199400133    2.11421625181006    0.85811313152456
H           0.07999160220707    2.26425344460792    0.44361403435109
H           0.87552120496776    0.78694566121011    1.53772845192750
H           1.56485696294683    1.98128686306276    0.09293048241270
N           2.21854022153994    1.44460641143721   -1.44077131783718
H           2.43766858055111    2.14206963186267   -2.14039247123624
H           1.32454079326094    1.02390496218932   -1.69072812227339
H           2.92162127945092    0.71820027027224   -1.49679342683126
