    26
        -50.44773018  Gyration_radius:  2.51354730006 Dipole_moment: 2.767
 S           1.39366647574517   -1.56556513325110    0.26133388251910
O           0.25452761302558   -1.35261172847648   -0.60255412571320
O           2.51225340577461   -0.69545971177637   -0.01433101856578
O           1.01676767435809   -1.53371649672633    1.68512987320599
O           1.88900656710339   -3.04461007084406    0.00282069465237
H           2.68288545168974   -3.05849962909390    0.52663019298963
O          -0.33962798085434    2.05194484616430    0.59011159723920
H          -0.24322286961260    2.95895720860618    0.88454445385104
O          -2.75610515523623   -0.51501100988022    1.94837105022314
H          -3.51274431641000    0.02319286136790    2.18581762380184
O          -0.39796863418638    0.30759599610768    2.45686868105552
H          -0.32684261709381    1.02851591551005    1.73145031825746
H          -1.34984616313107   -0.06765993372803    2.38085056081254
H           0.25397400854340   -0.51055107241156    2.14875713847530
O          -2.02140032634352    0.06099452900466   -0.48553505604406
H          -2.61624289548615   -0.40275221141803    0.96624194405506
H          -1.59737107071624    0.91894475875379   -0.34499485280114
H          -1.27990176486670   -0.56158100731452   -0.61362117705331
O           1.61456694109259    1.61656858860274   -0.94847407422002
H           2.07288862371698    0.82703653220985   -0.59077996586889
H           1.21442176707995    1.30060509187183   -1.79350406404176
H           0.46213935956139    1.88033918587854   -0.03633070904936
N           0.38735501069532    0.30573119478422   -2.97379653613618
H           0.90891542725242   -0.01679763781615   -3.77870939027650
H          -0.55679749748888    0.50906551634488   -3.27765973678484
H           0.33470296580031   -0.46467660246963   -2.30863730458442
