    26
        -50.44773020  Gyration_radius:  2.51356928276 Dipole_moment: 2.771
 S           1.22853041840916    1.08457604551858   -1.33244320651321
O           0.79732696077706    1.27466550404367    0.03395081352852
O           2.11746895168323   -0.03767752028251   -1.51843740332967
O           0.09018904423230    1.03834886464230   -2.26631200635132
O           2.03677103936821    2.38167292964656   -1.73760072612504
H           2.35773681559400    2.12829988986149   -2.59642966459892
O          -3.22862762284770    1.09583924142076   -0.18963363450555
H          -4.06176122020110    0.77203743624462    0.15620319956439
O          -0.98107745320021   -1.91737134913946    0.18638566034454
H          -1.23962973502732   -2.83698860729039    0.10823074421209
O          -1.32457313399831    0.55025524160842    1.50513293067223
H          -2.56264232755406    1.03462513355623    0.55161544737532
H          -1.22500643059530   -0.40093202064059    1.36021908530530
H          -0.55175213411737    0.94895008517665    1.06061640118095
O           1.54283852311776   -1.91632098076316    0.26027499395338
H           0.05036951672622   -1.92407467051831    0.21453265644676
H           1.83643159408138   -1.32045555147708   -0.46095708748956
H           1.77840953450522   -1.42938196550050    1.08582359024827
O          -1.80831538707174   -0.39455334046527   -1.69194110957977
H          -0.96658978429925    0.23234819275473   -1.98799343960986
H          -1.45620558590805   -1.04117663198766   -0.97863878710210
H          -2.44987147963225    0.23707002395502   -1.19975920440147
N           1.99424699372072   -0.14532628575074    2.25668376854829
H           1.38931197957289   -0.04980897051597    3.06292356214425
H           1.70081092938105    0.54906993710271    1.57078776208323
H           2.93560997328548    0.08630936880246    2.54676564399961
