    26
        -50.44773013  Gyration_radius:  2.51364274382 Dipole_moment: 2.770
 S           1.45135416831891   -0.84454617235300   -1.28111551880975
O           0.62670875778312   -0.63692831681361   -2.44777668856519
O           1.44008098934226    0.25889647739331   -0.34761152777050
O           1.14788760729321   -2.12587137532210   -0.62060309468642
O           2.94026380296965   -0.99114672066124   -1.79242465447321
H           2.83191911979126   -1.65892661302993   -2.46103191300185
O           0.17984944101177   -1.41066719240369    3.10462079380249
H          -0.37784120544759   -1.37678761102441    3.88330620070274
O          -2.11953110564996   -0.08856910977093    0.41533182177503
H          -3.06903304957883   -0.20915072766335    0.36507422446383
O           0.08355376904389    0.88778815092526    1.87838466357365
H          -0.79469266713737    0.83745623908775    1.47616094526145
H           0.26253039037302   -0.47544581682644    2.76529924148697
H           0.70217475972615    0.73671628146129    1.13790658338243
O          -1.43296698425543    0.90130301946600   -1.80390126673902
H          -0.74044391011960    0.30805875550814   -2.16434000759980
H          -1.84575409216114    0.31442375789096   -0.49415261989632
H          -0.94700290005825    1.73046165852358   -1.57960089004963
O          -0.77952618155227   -2.21380649339749    0.88421709576054
H          -1.34359808992380   -1.38957519273445    0.65355358702647
H           0.06940704207499   -2.21293118494610    0.19936999265924
H          -0.37582128600631   -2.02231060170176    1.80785392341132
N           0.28017365090413    2.83387795347845   -0.99273659667520
H           0.90499314194385    2.05435025831163   -0.79116203282821
H           0.16123804415176    3.35707520750806   -0.13411513160017
H           0.74407681716256    3.43625537909453   -1.66050715061397
