    26
        -50.44773017  Gyration_radius:  2.51359402686 Dipole_moment: 2.777
 S           1.73351030115640   -1.09280352329223   -0.51433054194409
O           1.24878975473259   -1.35000569836936   -1.84974589903184
O           1.48066432523756    0.25050990033636   -0.04422814369662
O           1.25924119998779   -2.10785557614106    0.44233198444299
O           3.30405233971728   -1.27146812559154   -0.55417844482197
H           3.37305202525878   -2.12873922121168   -0.96038097631843
O          -0.64741844367103   -0.28681055073487    3.33946417178555
H          -1.38936219444975   -0.04651310400708    3.89652102133042
O          -2.15486394131245   -0.12921525796291   -0.12141932059042
H          -3.05771031151971   -0.34162958685197   -0.36300017367143
O          -0.90276852996472    0.13024960224883   -2.29876500092906
H          -1.64883043841503   -0.02625271585003   -1.01471100680252
H          -0.49030924448849    1.02580622287014   -2.25597012886140
H          -0.14175696096651   -0.48640088960011   -2.25210052352769
O          -0.99451849235797   -1.85656599353643    1.36171141054480
H           0.00349897499846   -2.00992340864219    0.95030030780101
H          -0.84593014368661   -1.33704790786158    2.23385589676976
H          -1.47487605140764   -1.20608686262969    0.73139757693451
O          -0.41089014688715    1.46190942292550    1.42055249979145
H          -1.15266636934659    1.20653163756232    0.85474728091125
H          -0.47574958517932    0.48795197015386    2.73372985707937
H           0.37991711719333    1.12799080071449    0.95476756596520
N           0.54284932502448    2.36217766022436   -1.79251186377499
H           1.16792586794881    2.74959189425855   -2.48760106270321
H           1.08995824051869    1.74875514197267   -1.18998987264969
H           0.20419137187974    3.12584417901587   -1.22044663403742
