    26
        -50.45381463  Gyration_radius:  2.64791496213 Dipole_moment: 1.731
 S          -0.72085845411089    0.31260617828666   -0.17556588302855
O           0.26926575303681   -0.73019981248106   -0.38302145574691
O          -0.62843890143223    1.32373219600666   -1.31181609401411
O          -2.11223344711886   -0.28138978291043   -0.32071373011418
O          -0.59744892595933    1.00037479103021    1.07923137566874
O          -0.19538585337633   -2.93436140394871    1.06701874634814
H          -0.13985562539361   -3.68137206671277    0.46818095585145
H           0.09176400933813   -2.14954262232848    0.56044679168602
O           2.72274726949291    1.62073899034975   -2.57631617713923
H           2.52939071523154    2.51738313038666   -2.85465148703875
H           2.61550500299550    1.60335951861124   -1.59018303245686
O          -1.87639685552917    0.13826953109765    3.26803731554138
H          -1.31048703462499    0.51953903829597    2.56847625587671
H          -2.51913472588791    0.81394335069885    3.49169391627576
O           0.67418725826811    0.02173319336333   -2.99933683095946
H          -0.17862235709406    0.84376473938359   -2.11719022869052
H           1.50820607117652    0.56360015803621   -3.00036636290473
H           0.81597902669587   -0.67861042835966   -2.34914978956963
O          -2.54881184764333   -1.80356786104367    1.58731589930482
H          -2.39716927488529   -1.20025732149684    2.35309693501996
H          -2.36940954630309   -0.95309261271297    0.48045592792353
H          -1.74972441370648   -2.37633336704046    1.53722458261671
N           2.14010295310531    1.45000396246044    0.05143396530865
H           1.80919148075934    0.49054816365561    0.07557129179294
H           1.33772573262729    2.01626367608746    0.30356667134578
H           2.82991201034502    1.55286667129159    0.78656046109478
