    26
        -50.44773011  Gyration_radius:  2.51362584532 Dipole_moment: 2.778
 S          -0.34695852986056    0.56389112334739    2.00638779666658
O          -1.62504727349844    1.15268187976737    1.68327435165862
O          -0.08811898600033   -0.68871695029424    1.33303336472744
O           0.75631042183595    1.52312819618754    1.82491826952044
O          -0.36528416005626    0.25054918488788    3.55610284871943
H          -0.63590520899937    1.09401152434720    3.90253029787655
O          -0.09125734623907    0.80839320757161   -2.00375465141933
H          -0.29369728461281    1.32402240638089   -2.78589369122433
O           3.34641044087895   -0.02219530070702   -0.67475466714363
H           3.86276920760090   -0.10005325695719   -1.47839089066068
O          -2.28730172220247    0.49683322831647   -0.79721606338274
H          -2.14941370153557    0.83277404174312    0.11369076129303
H          -0.99179865310003    0.68636103336663   -1.51492287372926
H          -2.38457514503672   -0.47848076777538   -0.68201838545483
O           1.63516715347697    1.85136462305304   -0.43518584931441
H           1.24836085988816    1.74617563933898    0.57852665811409
H           2.41648587841060    1.18880547791593   -0.49205421832140
H           0.91423023764587    1.48253807348013   -1.06411230044185
O           1.18029656434824   -1.45481883170830   -0.90182416801039
H           0.66328634889461   -0.90171156352132   -1.50375655541648
H           2.62797107863646   -0.71365808335550   -0.72264055184024
H           0.76835508975564   -1.31790588299470   -0.02695332031577
N          -2.13692766518619   -2.12243611872979   -0.13034094298120
H          -1.44938768315354   -1.80506554219141    0.55173308687587
H          -1.68790013729040   -2.81914324683394   -0.71179673427376
H          -2.88606979459735   -2.57734409463576    0.37541842847698
