    26
        -50.44773022  Gyration_radius:  2.51353292252 Dipole_moment: 2.773
 S          -1.39266665771555    1.30475554216311   -0.90434268624147
O          -0.24650455722167    0.55727089184181   -1.37007677967144
O          -2.51190126692679    0.48194428462672   -0.51121715463954
O          -1.02867423197786    2.26863325103650    0.14859803592301
O          -1.88020683631302    2.19165871328545   -2.11922182823271
H          -2.67774054978278    2.56254328480436   -1.75728608544364
O           2.74278969734236    1.73161979057777    1.06566947163852
H           3.49666468938182    1.51165278910405    1.61503995968115
O           0.33309997077135   -1.07061643791317    1.84805697372941
H           0.23444262110866   -1.52258194546351    2.68744622818245
O           2.02711470950598   -0.37352605381419   -0.29500617318159
H           2.61075898743794    0.96938655802416    0.43456148420900
H           1.60051233366245   -0.89650204653814    0.39792573169638
H           1.28756823259749   -0.01585003665211   -0.82308809086447
O          -1.61169880667924   -1.82766323093255    0.42633965758191
H          -0.46467109061691   -1.38264858924500    1.27302517810804
H          -2.07100622905269   -1.01228663240608    0.13366928827428
H          -1.20594024378420   -2.18472917666013   -0.39936719980259
O           0.38011642404466    1.48075532501790    1.98754329747290
H           0.31340730421807    0.45810553694947    1.96313114790015
H           1.33296030062907    1.70273084649960    1.67823333910880
H          -0.26907461661688    1.85482050600473    1.19548073947349
N          -0.36972608816379   -2.28144753815584   -1.93556485886684
H          -0.88622237271425   -2.60641901962903   -2.74274526085631
H           0.57551646832969   -2.63669535726780   -2.00894157567450
H          -0.31891819146622   -1.26491122525455   -1.98786281950753
