    26
        -50.44773017  Gyration_radius:  2.51356059173 Dipole_moment: 2.773
 S          -1.58761055852065   -1.00588912983718    0.96360874122965
O          -1.36078354115272   -0.51462969766441   -0.37672570535909
O          -0.73933933492546   -2.11318837352647    1.33596485116596
O          -1.53912341602224    0.07695950919038    1.96116245086336
O          -3.07694463655565   -1.53485224565230    1.00685260936226
H          -3.10180215801887   -1.92176894814077    1.87543627738745
O           2.06161361826290    0.56728556160723    0.32221237330736
H           2.96892667126557    0.62782616577000    0.62503392301774
O          -0.45479765144164    3.38019958233616    0.15849639377434
H           0.09776006272565    4.13598491323610   -0.04649024620220
O           0.33111665025992    1.65171396947524    1.85830821755988
H          -0.02848137565879    2.41989106166889    1.28075088282894
H          -0.49966814484136    0.95131201801211    1.94595232198028
H           1.04608878846437    1.18874240722314    1.28767392802771
O           1.58199314510525   -1.89941785464283    0.07557202469655
H           1.87176654264893   -0.44231822675299    0.22507146987244
H           0.78680164322935   -2.07921656711744    0.62033845285441
H           1.26797946785140   -2.01150445786862   -0.85332923358767
O           0.09203358790487    1.44161897020071   -1.49619107697194
H          -0.35171727859776    2.73204939174718   -0.59382663722427
H           0.94368872336477    1.14445004540179   -1.14695922487484
H          -0.54381866266679    0.75872483578217   -1.20777307473058
N           0.27973225776157   -1.93266259179954   -2.29709969609962
H           0.49657313432999   -1.30474258406053   -3.06114868158223
H          -0.48534632354315   -1.51654546840868   -1.76769409406280
H          -0.05664121122672   -2.80002228618137   -2.69519725723564
