    26
        -50.45683224  Gyration_radius:  2.43347225848 Dipole_moment: 3.397
 S           1.37112609813538   -0.66500867443175   -1.03423985294828
O           1.62281008331818    0.70557547966412   -0.38789449220523
O          -0.01437035623472   -1.03745240805144   -0.85330760871424
O           1.84512407093086   -0.63148818444790   -2.36935854757004
O           2.22473911599068   -1.64997633016449   -0.19185141034811
H           1.77521048742793   -1.77181724131668    0.68706299206763
O           0.94873766737257   -1.90332729444651    2.08582420544429
H           1.16830705748829   -2.71912454926667    2.53921614728349
O          -1.96814266748823    0.88980148056821    1.36345669149370
H          -2.58733472749413    1.54899819791372    1.67866928307993
O           0.64370477745826    0.83267018792306    1.93354887682938
H           1.23300907836875    0.79535099136721    0.56052138272868
H          -0.32836880919102    0.90764648023788    1.79739404063218
H           0.81024471832517   -0.05585263609329    2.28052957037590
O          -1.82227382726283    0.92604410957043   -1.23780791070737
H          -1.22025988240387    1.51824882427398   -1.73879600968048
H          -1.35098198791732    0.07785323210088   -1.26248093344454
H          -1.95210606839457    0.97295489160206    0.36578548734573
O          -1.49031589739054   -1.84747388557788    1.23813359874901
H          -1.86604167899634   -0.97739325516050    1.45105525334340
H          -1.16709301823264   -1.75254681364085    0.32594720981450
H          -0.02388526410282   -1.96641854717097    1.82764810145213
N           0.28025231606378    1.92173578676668   -2.65356932316580
H           0.75758559438040    1.03055685706295   -2.75862205864793
H           0.88122400088310    2.49870054876854   -2.07694963392280
H           0.22909909896385    2.35174273195017   -3.56991503929376
