    26
        -50.45683220  Gyration_radius:  2.43360893787 Dipole_moment: 3.399
 S          -0.49453075044419    0.31534770517159   -1.74701813295332
O          -1.10408720266162    0.60544815440394   -0.46823238091376
O           0.67864217707137   -0.65611290544361   -1.54775085760733
O          -1.35036352631612   -0.20563769057287   -2.74919980517092
O           0.17154523829740    1.62541324783517   -2.24524184421983
H           0.63646413332397    2.04681411011117   -1.47336822101082
O           1.35125398929728    2.65115894222186   -0.13916552801272
H           1.49199073523562    3.59579340507357   -0.22353865104645
O           0.58596205870372   -0.44156915650953    2.44838165444167
H           0.82946839720178   -0.97328631682682    3.20682994271114
O           2.17030517380808    0.06446400642921    0.35486813565202
H           1.66253507940529   -0.14243806699170    1.17250707702162
H           1.30714514572866   -0.39559350157432   -0.77535848345181
H           2.17472275053825    1.02847185935285    0.26424335260218
O          -1.43531168084149   -1.49688566209932    1.18757900288749
H          -1.58174758905917   -0.69134831428316    0.66617549303513
H          -1.34137543132649   -2.18495750530294    0.49356458926643
H          -0.17995058379690   -0.91301999888240    2.00830007327801
O          -0.38343894645089    2.04953950320628    1.67745585645608
H          -0.93969514533947    1.62713550456158    1.00088010221602
H          -0.03442248330645    1.30773409411351    2.19838912364319
H           0.69053845960369    2.52110742602476    0.61118710176179
N          -1.26081144893285   -2.78601101926157   -1.20535065081116
H          -1.48706003254347   -1.97255797183978   -1.77123479302417
H          -1.85374551826382   -3.54802258044799   -1.51347686154022
H          -0.30403299893687   -3.03098726847145   -1.43142529520568
