    26
        -50.44772979  Gyration_radius:  2.51298638823 Dipole_moment: 2.774
 S           0.90801900155438   -1.87770285019832   -0.33938899866478
O           0.29023071774312   -2.46092357864742    0.82769794787690
O           0.03912426981786   -1.98059966495474   -1.52479200516552
O           1.38968470973118   -0.52958845063805   -0.13955573278109
O           2.17171539260182   -2.76409856756422   -0.68215901232105
H           1.77746774791297   -3.62909367339076   -0.71528627369078
O          -1.92977025889551    0.85774489158460    0.46507839938632
H          -2.82920377136809    1.00744614044450    0.76045737253160
O          -0.50640658853087    1.63437182529112   -2.94923130810028
H          -0.99301480301830    2.42050097150364   -3.20166978669077
O          -0.83983362436981   -0.54089013146167    2.26296410976301
H          -0.03018113237408   -0.04125792097086    2.52507020495045
H          -1.49089641802053    0.28443984727871    1.20216804644842
H          -0.49314770867835   -1.34161049788925    1.81566183525070
O           0.46159776690540    1.95324238852863   -0.54953567081854
H          -0.33989268893134    1.84709673705702   -0.01848270458791
H           0.94640979892377    1.11370157958208   -0.43240038385006
H          -0.00598428433643    1.85785390984198   -2.11484605551903
O          -1.71387110611235   -0.29666517223334   -1.80458575241605
H          -1.27095112632909    0.42669427013342   -2.38186200903673
H          -0.95818892440047   -1.07543211215466   -1.69514584174187
H          -1.83633135642992    0.12550688212020   -0.87839549928341
N           1.55969224069241    0.69346050080910    2.48182431258961
H           1.75386013030913    0.25133632966414    1.58432498098274
H           2.25770370269685    0.37317721673545    3.14082477349941
H           1.68216832300451    1.69128915897952    2.36126505064568
