    26
        -50.45683226  Gyration_radius:  2.43345175745 Dipole_moment: 3.398
 S           0.18380758592229   -1.74804433407383   -0.55021747508957
O          -0.80215165661108   -0.89057955484276   -1.35791514917760
O           0.59766828887437   -1.02469497580521    0.63151425737018
O          -0.39336535160769   -3.02470607774339   -0.33726967442747
O           1.42727465204607   -1.87356074981172   -1.47019189739380
H           1.89792144814499   -0.99720451095882   -1.47160230304716
O           2.59008619205996    0.47616315885108   -1.39176850422785
H           3.52001489342887    0.43146348076065   -1.62095887509509
O          -0.25408280741900    2.39143220423775    0.86076757519444
H          -0.72673418212750    3.18792018934081    1.10477095787501
O           2.19222504177867    1.08708032840343    1.08587958399845
H           1.48537816000144    1.75221472026870    1.12505258078438
H           1.73241216012111    0.24033157665366    1.21692134631960
H           2.54195987685590    0.75228116599613   -0.42318892725173
O          -1.35147665302329    0.29348546150118    1.94872956417076
H          -2.09679938569700   -0.20033847218219    1.54281785090770
H          -0.58763589441647   -0.26588467135904    1.73474640073143
H          -0.73806405964793    1.63170500045983    1.29787989277454
O           0.03135411245324    1.47431207152347   -1.63472604830215
H          -0.49612996820673    0.08358998459955   -1.48774473059983
H          -0.09264897959707    1.89400515373834   -0.75292647702080
H           0.98405126162486    1.34843121790084   -1.75356663075452
N          -2.83942226966464   -1.54601522468442    0.60008708190439
H          -3.60740446366071   -2.08559217917249    0.98249826172528
H          -2.06947179699667   -2.18683959733523    0.42795272478309
H          -3.12876620463990   -1.20095535626408   -0.30754137615228
