    26
        -50.45683229  Gyration_radius:  2.43359905732 Dipole_moment: 3.397
 S           0.60608105597031    1.61838750187213   -0.63708791483051
O          -0.10264499806057    0.51081975658945   -1.23875881753099
O           1.13443495681772    1.20034281618934    0.74340818158226
O           1.67778034027868    2.16285222420657   -1.38767566610575
O          -0.44180802888825    2.72108761104252   -0.33009178694690
H          -1.24715446786394    2.28139159961935    0.05391590293643
O          -2.51364404869254    1.45541007354602    0.66256087824033
H          -3.32682793836868    1.95420248939463    0.56662046353292
O          -0.82897138242575   -2.28416502056267    0.78964932988972
H          -0.75422397790886   -3.15159725983463    1.18876974114679
O           1.05301321568951   -1.91111678963685   -0.97357369237999
H           1.94636317122105   -1.57098094041551   -0.74969771527916
H          -0.07040044543022   -2.20662494513923    0.14085280330884
H           0.61332030164876   -1.12475456310236   -1.33478291158209
O          -0.64106415215855    0.03592947760024    2.10576423607383
H          -0.72835301255232   -0.85767498152199    1.70211132179101
H           0.43706313829917    0.71777254275760    1.32673413709696
H          -1.44146772532795    0.52826750781970    1.87222737608663
O          -2.46593422992176   -0.68109113277287   -0.78791354712653
H          -1.68531580326123   -0.34044439482073   -1.25716156543483
H          -2.12075082500259   -1.40936870382764   -0.24574146309660
H          -2.60804856859348    0.63177277434986    0.08872422282961
N           3.21820317848891   -0.30001472636233   -0.60688087752794
H           3.34703584098347   -0.06041266481473    0.36907285058751
H           2.80680113688758    0.51793862259322   -1.04820664940201
H           4.13651325817627   -0.43792886476869   -1.01283884785784
