    26
        -50.45683223  Gyration_radius:  2.43357363717 Dipole_moment: 3.398
 S          -0.93066143742541    1.20663942461356    1.03449145662422
O          -1.78156215597594    0.17178817679223    0.28305057809160
O           0.43843067456790    1.13164746065547    0.57508561695344
O          -1.56041153193251    2.47220214673924    0.93353350709684
O          -0.94724367567939    0.72089794575959    2.50834037330320
H          -0.36535114958507   -0.08321079979391    2.57354955112149
O           1.35116547361640   -1.59719328075511   -1.46609116367781
H           1.54763044183419   -2.10917696695300   -2.25129701287793
O           0.61739332545159   -1.38353410145069    2.56513564524622
H           0.96160295025144   -1.55984301752496    3.44249476365820
O          -0.66070317412084   -2.08742485200715    0.22543787746138
H          -0.25138452732512   -2.14103934318678    1.10132281177586
H          -1.35277337480145   -0.76280959761489    0.23580536729270
H           0.07147735052580   -1.99352957304079   -0.42590111000160
O           0.77657092868443    0.86728233940524   -2.08725410997020
H          -0.12525864161532    1.16849242693112   -2.33197889482456
H           0.85237535653566    1.15900223038678   -1.16460199075545
H           1.12564264986164   -0.67393287465362   -1.78103266844925
O           2.44182951558102   -0.62570233872407    0.90142454376764
H           2.30774548255586   -1.10196552693026    0.06553601350623
H           1.97196501448037    0.21635907699549    0.77580533533111
H           1.40518092562584   -1.13094219547885    1.98879509128037
N          -1.72867422004098    1.93378259700108   -2.02134673318920
H          -2.07534630891192    2.67243639423512   -2.62248526543841
H          -1.64790734575436    2.31430336496048   -1.08231353795843
H          -2.44173253640070    1.21547090363941   -1.97550604536756
