    26
        -50.45683216  Gyration_radius:  2.43364284629 Dipole_moment: 3.399
 S          -1.31498427617581    0.60027376518558   -1.14309030714314
O          -1.12657679845369    1.41263333723628    0.14690936093761
O          -0.53798470659175   -0.61668628801331   -1.06532390076555
O          -2.70294337549319    0.44732906700611   -1.38482960215195
O          -0.67690845235193    1.48199466728623   -2.24931988454955
H           0.31120506075900    1.44164451999181   -2.14259534719693
O           1.91330155402473    1.29349363033759   -1.88141597930798
H           2.41037738838454    1.49434813412157   -2.67629988638290
O           1.79270379149783   -0.92975057190701    1.56668557775388
H           2.17119666334227   -1.18075898503758    2.40990649998733
O           2.08242136063524   -1.18896053008387   -1.18825905787614
H           2.23268055266618   -1.22820681410617   -0.22947145054833
H           1.11876289716642   -1.27732427097970   -1.28421444761033
H           2.07091667247216    0.31866908880623   -1.67815758766258
O          -0.60489213366037   -1.91397958021674    1.29812604312174
H           0.87398440122238   -1.32704899229280    1.54107735016528
H          -1.41349139378738   -1.46831244600260    1.63196893104412
H          -0.62704185285382   -1.70672782197474    0.35016234208024
O           1.30605030771669    1.58282954176814    0.79304486848389
H          -0.14491132663299    1.49930905767250    0.44406256896212
H           1.54328880122328    0.69208717982050    1.13875327155877
H           1.74459011972926    1.67623048455870   -0.06515444093764
N          -2.90017211332380   -0.45867437301066    1.47681999494989
H          -2.73939683544279    0.44636551644014    1.90304923650090
H          -3.79464371950643   -0.79999996192268    1.80940677480581
H          -2.98753259656752   -0.29077738468270    0.47815908178405
