    26
        -50.45683220  Gyration_radius:  2.43359683645 Dipole_moment: 3.399
 S           0.16307274924811   -0.50170438417234   -1.76479141894271
O           1.11989564145640    0.60289240616138   -1.29158347223152
O          -0.82638088911408   -0.75483840003922   -0.74115300190981
O          -0.33147426483193   -0.15600454281352   -3.04711021215285
O           1.05560934386164   -1.76745262070427   -1.86312970630218
H           1.25541270349399   -2.07539453876557   -0.93860439952821
O          -0.32865063580442    0.69123150043780    2.43770069358454
H          -0.40242897422207    1.30287055872256    3.17102545415359
O           1.50889030918397   -2.49373295299624    0.61621974128386
H           1.73979000712059   -3.42148509876547    0.68854725652677
O          -0.78537053612616   -1.94232365363529    1.66654052166111
H          -0.69305111371310   -1.12869829534440    2.18902389347158
H          -1.10406848792132   -1.63630873120156    0.80030004560092
H           0.62214552522813   -2.37735178444815    1.08180752084151
O          -1.86368439262181    1.42337855514865    0.46342550071163
H          -1.58742821134736    2.06097783773127   -0.23014910534934
H          -1.76165548209615    0.56839163362918    0.01540147945708
H          -0.92819162049754    1.04235860635081    1.71681501000055
O           1.91391258377344    0.19627198159622    1.06807338284622
H           1.14145648341842    0.41078935542461    1.63939757200409
H           2.02034927291950   -0.76588569214706    1.09058955230074
H           1.46157280062834    0.47215713420509   -0.32940855855323
N          -0.97081025881887    2.53237385468194   -1.85864863172691
H          -0.92750451952224    1.65755412053289   -2.37439220401487
H          -0.01565797827502    2.85995117610978   -1.77583107703899
H          -1.47575005542025    3.19998196430031   -2.43006583669435
