    26
        -50.45683219  Gyration_radius:  2.43364590381 Dipole_moment: 3.398
 S          -1.21909484062814   -1.24771158036278    0.59348944440272
O           0.18351050118888   -1.33350302766020    1.21408538952135
O          -1.20297239722830   -0.31270590688703   -0.50940550167975
O          -1.66715520902918   -2.55987289193970    0.30067136107855
O          -2.09648719664912   -0.62361736993480    1.71113315836287
H          -1.86277530916320    0.34056506035927    1.78303090333282
O           1.65516748399403    1.71680579714587   -0.91945600250429
H           2.49966889397449    2.02827163899497   -1.24674487758610
O          -1.40831252292111    1.90568203372609    1.80545743435489
H          -2.09295096899428    2.45635907509834    2.18925778535484
O          -1.04354031173812    2.35994012878014   -0.71093008132689
H          -0.08756432974249    2.40182281279831   -0.87764124485665
H          -1.28145111532268    1.43786093079982   -0.90784266011938
H          -1.32019906085914    2.18166128635051    0.83977016053186
O           1.17228679181133    0.95552079882991    1.59771420724344
H           0.62057115739648   -0.41674490740000    1.38098790077146
H           1.42257694923379    1.28077798374920    0.70285600107188
H           0.40285109917585    1.47192325042674    1.87846976082407
O           0.92998105105596   -0.46078799147365   -2.15297365612180
H           1.45053607125592    0.87630244476762   -1.42365688458028
H           1.20763708740360   -1.36005184779765   -1.87338616717479
H           0.02510753794130   -0.40317628650190   -1.80660797044609
N           0.99007933952118   -2.95212115979913   -1.05394586677249
H           0.02115742649824   -2.94689565738243   -0.74686303730314
H           1.55352437918303   -2.97760228169887   -0.21222605870152
H           1.14784747263839   -3.81870234298397   -1.55524349768311
