    26
        -50.45683225  Gyration_radius:  2.43357659579 Dipole_moment: 3.398
 S          -0.74567465050194   -1.61071074601869   -0.49225993154385
O          -1.25992763724790   -1.00865469047913    0.82408174188702
O           0.39975280070627   -0.85792167902344   -0.95277070253039
O          -0.55272473753457   -3.00285998519004   -0.31032745609811
O          -1.89547715947691   -1.36135661227574   -1.50413794761258
H          -1.90159019540502   -0.39257989954315   -1.72987111117811
O           1.12578187691173    2.19839308610932    0.65330614870798
H           1.53252172218460    2.82934129247286    1.24813417661857
O          -1.81227655581423    1.20613476175600   -2.03393812885203
H          -2.21981951899870    1.41831057444279   -2.87545313556251
O           2.19288599172627   -0.16177335962363    0.93730180469509
H           1.89176651721984   -0.81590010803292    1.60469282613948
H           1.78132683616172   -0.48940607983995    0.12159975897000
H           1.57110059474224    1.31893976355619    0.82865005083343
O          -1.45570856194315    1.50254034019056    0.68446028679232
H          -0.52940289395425    1.83409466717144    0.71885086055349
H          -1.76857257663200    1.63864844960277   -0.22171868951004
H          -1.34858335930112    0.01673688509908    0.80543308099277
O           0.74378755042638    1.57674701644023   -2.03106157143818
H           0.98464662976460    2.02965535146338   -1.20621160061366
H           0.87649351376403    0.63368598739518   -1.83452358432109
H          -0.83022452977136    1.41552769771576   -2.12503214274941
N           0.98155824743745   -2.26687512230448    2.16986979817805
H           0.18595587873422   -1.97132811886964    2.72316831196430
H           1.45122825607975   -3.00691269505290    2.67870765841769
H           0.60117594072285   -2.67247677716211    1.31904947726320
