    26
        -50.45381437  Gyration_radius:  2.648230847 Dipole_moment: 1.733
 S           0.02215893313668    0.30238493994274   -0.74298359489430
O          -0.05057124613235    1.82432177939110   -0.72762856312765
O           1.39962552723440   -0.10413228180603   -0.73694977629285
O          -0.75896102047352   -0.22404260794399    0.36320952757797
O          -0.64046617560715   -0.08702307283815   -2.05408168077027
O          -1.31720944103220   -2.83107157870771    0.10618163807636
H          -2.25579552624905   -2.93586271155141    0.27284972323155
H          -1.09890941567429   -1.90231788633500    0.31784937481197
O          -0.39884999544036    3.11532329623012    2.61214151610341
H           0.01816651447596    3.93269638687656    2.33501210152602
H           0.27191138096924    2.39737197031629    2.47556667979118
O           2.20259439893556   -2.32147000509590   -2.00620092670194
H           2.76070690472249   -2.03241343844409   -2.73048813822370
H           2.03752638143825   -1.53125930582073   -1.45550201634635
O          -2.02392604303205    2.18736026726754    0.75992570200179
H          -0.90956172184033    2.08753619973551   -0.20374151894244
H          -2.04864926480606    1.24180372784613    0.95659277196450
H          -1.56024269784714    2.61229013197665    1.53038967617321
O          -0.41648953595246   -2.53447434738287   -2.38170316394839
H           0.56268726168244   -2.64490585694598   -2.33167749787376
H          -0.76529736352971   -2.85702905426426   -1.51950199621790
H          -0.57768471741468   -1.14192652343898   -2.26109265052045
N           1.27155642866741    1.09838706689297    1.96607820465363
H           0.57889328285072    0.39141032724110    1.74028367549023
H           1.92902155117326    0.68372873906006    2.61610472723247
H           1.76776559976708    1.27331383781756    1.09936622523333
