    26
        -50.45683223  Gyration_radius:  2.43358226705 Dipole_moment: 3.399
 S           0.03080234089914    0.47729216380840   -1.77880409720527
O          -0.55228163999296    1.06947135700172   -0.59543981654754
O           0.50187003337143   -0.94958839974547   -1.45965223515493
O          -0.79063619457683    0.43700555180389   -2.93295543899437
O           1.33864408415229    1.25477524972870   -2.08422342054323
H           1.81611995547695    1.40261577430011   -1.22421691015975
O           2.50433836221547    1.59563939454017    0.24061774829026
H           3.11353274368381    2.33602168115145    0.23870382105220
O          -0.13349296240655   -0.61495326160906    2.47597325966546
H          -0.32176524911484   -1.17638616392682    3.22876784413839
O           1.81442484045002   -1.03568978344434    0.69301508825894
H           1.03835256266476   -1.02391389152944   -0.58435575992415
H           2.31840237351491   -0.20938200284341    0.66468045256655
H           1.14337974340018   -0.93581488147588    1.40633573706301
O          -2.16962958048584   -0.53120313567358    0.85189567439355
H          -2.32127724709746   -1.18910200223318    0.13908473617762
H          -0.94691552459257   -0.64388250597239    1.89296598687845
H          -1.80120366131678    0.22389611531998    0.36587964200296
O           0.42875858318964    2.00319115559759    1.72269984460306
H          -0.14290916581721    1.90418494640222    0.94229552665029
H           0.26423765563696    1.20005355381077    2.24367152975190
H           1.75387383573719    1.83786243237552    0.86889472516506
N          -2.27257742029441   -1.79183300816174   -1.56028080767195
H          -1.54678435145632   -2.49327353852364   -1.64796750296008
H          -1.96031454846718   -0.99062657235072   -2.10217320441285
H          -3.10694955876657   -2.15636021834601   -2.00541239308805
