    26
        -50.45683225  Gyration_radius:  2.43359552193 Dipole_moment: 3.398
 S           0.40159412344582   -1.75103935204000   -0.40576792869318
O           1.17360999440136   -0.64357519661523    0.11235605855188
O          -0.95179231447838   -1.23726491277220   -0.91945329123589
O           1.01204852847891   -2.52153638383883   -1.42660897932051
O           0.03635027794040   -2.65887605393520    0.79869886704167
H          -0.23989799061827   -2.07232185753271    1.55302018791539
O          -0.46033040290369    2.45424732055930    0.54113659739604
H          -0.75890376847325    3.34729093119384    0.36607034820349
O          -0.66354216397895   -1.01677900632621    2.72068055855035
H          -0.57437979873512   -1.41169742591717    3.58980624820215
O          -2.04883883089083    0.31259502844078    0.74134652515723
H          -1.53829479684522    1.15232897538935    0.68397930407766
H          -1.42749605853794   -0.59759396924032   -0.26829905908314
H          -1.82306211811089   -0.09518935959426    1.59007006585317
O           1.12060267674214    1.61869024846576   -1.35436492864158
H           0.12411611393315    2.19675194142964   -0.22990219222276
H           1.41495016192844    0.85831308008189   -0.82771221338208
H           0.80043352201017    1.19427182858381   -2.17976761507448
O           1.02140428662025    0.89642784203964    2.30635147052519
H           1.39549616250439    0.39977377452518    1.55866807277919
H           0.54705956553534    1.63486442099757    1.89015448853638
H           0.00783953790722   -0.26617798043744    2.67181670084013
N           0.42690032877836   -0.20538824976909   -3.25430711048342
H           0.79497201692765   -1.01059848411545   -2.75512458756763
H           0.78586632899150   -0.24174656831595   -4.20137119002013
H          -0.57670540256318   -0.33577057126869   -3.30147639791049
