    26
        -50.45683223  Gyration_radius:  2.43355154898 Dipole_moment: 3.399
 S           1.26768650917315    0.11058025990937   -1.33167452626910
O          -0.11864619783956    0.51063506338567   -1.23655039389774
O           1.62508852321497   -0.78937550547174   -0.13920673630752
O           1.65340104325140   -0.54513957596853   -2.52735337990023
O           2.12824956053531    1.38502779991989   -1.12315889372735
H           1.73282133619886    1.90343308812445   -0.37196958915687
O           0.99577316067992    2.67230325956384    0.86202979526053
H           1.20676528285269    3.60759242454879    0.85894278574860
O          -1.83110068445319   -0.15898897169106    1.77428836346815
H          -2.39592977150963   -0.59784871765236    2.41128741871526
O           0.80732456772812    0.18568134326458    2.03897517625763
H           0.95541843025818    1.13427180242126    1.91307521952301
H          -0.16716138472993    0.04614911659494    2.03222872165573
H           1.30290120783686   -0.42438201433676    0.76771790745092
O          -1.85590490237628   -1.41851811416175   -0.50675364861995
H          -1.42683614313847   -0.67823853221796   -0.96504848072837
H          -1.26160181789113   -2.17140825533093   -0.71646667437341
H          -1.87741768292232   -0.70323352824327    0.93518732989199
O          -1.48874265730328    2.19888314147658    0.33857371709052
H          -1.22217944291559    1.68692967758488   -0.44403807233953
H          -1.80955751820916    1.52941836119973    0.96501325522542
H           0.00634469758369    2.59657438916087    0.68350435578860
N           0.19326093499607   -2.94457559006082   -1.45016664434269
H           0.85691983321819   -3.17361886591732   -0.71968373530022
H           0.62054131405356   -2.20446971928119   -2.00039996481215
H           0.10258178170911   -3.75768233682502   -2.04835329629657
