    26
        -50.46489372  Gyration_radius:  2.5536351873 Dipole_moment: 4.633
 S          -0.81053420691792    0.05085496409622   -0.15040896920322
O          -0.02796715791485   -1.18326467039649   -0.07839270929599
O          -1.14811345401183    0.38933144673699   -1.51835241631895
O          -2.10824380854894   -0.12970858620467    0.63751847810578
O          -0.05251119886081    1.16540813402110    0.46251041197206
O           0.67110407671285   -1.95127218782798    2.34514404216136
H           0.60931668964263   -2.90792463618046    2.34778374675482
H           0.50066537745813   -1.66984378738330    1.41929873211688
O          -0.18417425955361   -0.89587380166618   -3.61010912594610
H          -0.63927337164487   -0.41821418797951   -2.87961428225972
H          -0.75314245835231   -1.63360421622526   -3.83365267198359
O          -0.53582231904507    2.02113000563921    2.94827486531180
H          -1.23935971664133    2.66335546522239    2.83994067504397
H          -0.25706767751318    1.76601105446632    2.04534016551962
O           1.85897535906265   -0.96599857135273   -1.89818627407118
H           1.26634410716308   -1.20601908395656   -1.14857866683977
H           1.30680974895282   -1.12951078597747   -2.69235438558205
H           1.72414286563894    0.51472725193091   -1.79376515146620
O          -1.45972713998911   -0.50069902695640    3.04400793578686
H          -1.12402903103452    0.39444052146258    3.26219210372399
H          -1.88865222390709   -0.31655882456335    1.63341372031713
H          -0.66145702637552   -1.07023293516748    2.97311628663468
N           1.36026158522204    1.54321709807796   -1.64384880491468
H           2.10187731535459    2.23634774265205   -1.65278269933692
H           0.83460372146789    1.50500809266593   -0.70205299856607
H           0.65597420363819    1.72889354486136   -2.35644202766315
