    26
        -50.45683227  Gyration_radius:  2.4335449476 Dipole_moment: 3.398
 S          -0.43941633490931    1.39907713506734   -1.11444785059704
O          -0.44528820662353    1.22602697518799    0.32114615852453
O          -0.24422432219670    0.03576311928417   -1.79483227382515
O          -1.57713089701052    2.02906491834245   -1.67758614274464
O           0.84238101962961    2.19600869026814   -1.47520725453336
H           1.59524481312190    1.82543684149172   -0.94097291037079
O           2.74911597039703    1.14783331933435   -0.01062495418858
H           3.48159168050400    1.75219479865788    0.12172341318763
O           0.54088509619000   -1.90528722783769    1.61367635563045
H           0.48106752123063   -2.79161543864922    1.97177499952877
O           1.43166681789970    0.67272734232069    2.15939495419564
H           0.63027576971402    1.03981434172148    1.74873139322366
H           1.26007628231473   -0.28210460790225    2.20818569801884
H           2.32544006691407    1.00179912106712    0.89260605551020
O          -1.83210405907378   -0.89270993993732    1.24831035973148
H          -2.36041333726326   -1.03005557598676    0.43223437180368
H          -0.40054206646207   -1.58949627993612    1.48547621749045
H          -1.47434097421316    0.00027414179676    1.11903828040752
O           1.63943076244564   -1.26910310034485   -0.73966337370997
H           2.28810404224867   -0.57821939502120   -0.54093663834161
H           1.28272752088054   -1.58152399656306    0.12305213460687
H           0.51492729445870   -0.52711902075864   -1.38697381604446
N          -3.01524627717084   -0.56642183479041   -1.18308994944323
H          -2.71572209269817    0.39669769508551   -1.30873074853960
H          -4.01077649661267   -0.60442244992419   -1.36932157580548
H          -2.54772958371666   -1.10463956198066   -1.90296293371485
