    26
        -50.45683223  Gyration_radius:  2.43360149297 Dipole_moment: 3.398
 S           0.61997139887539   -1.67281723285177   -0.46053047278776
O           0.82592708494764   -0.56956400986907   -1.50938936581677
O          -0.23414376166927   -1.18031536004758    0.59719969814691
O           0.19073530645313   -2.85175273065315   -1.11950604949495
O           2.02953391549849   -1.88929778583279    0.15145063761774
H           2.23420506740030   -1.11005293359649    0.73489917746595
O          -0.94394217481357    2.27581610188429    0.67841960422404
H          -1.40760998482553    3.10372912793413    0.54853664466553
O           2.45821044750664    0.20596332040585    1.66999657851931
H           3.10994745030892    0.03474184090727    2.35203544398739
O           0.08120034803385    0.56225079628162    2.61535775067211
H          -0.31437000980307    1.32641390802273    2.16474716746050
H          -0.23197650620486   -0.20506522148751    2.10668443170811
H           1.58004116337196    0.36393231971324    2.13951158500401
O          -2.36723960046955    0.27177133791693   -0.18610971439657
H          -1.53918796709180    1.55922655547057    0.31140297687496
H          -2.35917445836919   -0.03614991125916   -1.11834459222401
H          -1.79433725077312   -0.37642528423125    0.25406794918985
O           1.40187458807149    1.63942942066296   -0.43578626964227
H           1.97118549518733    1.37253826954531    0.30055936122456
H           1.05855322840668    0.34876028032240   -1.10665794900802
H           0.55886536204099    1.96108295483561   -0.04205435517466
N          -1.85530916354754   -1.11273673947476   -2.47509151410858
H          -2.54717317848040   -1.55979011819952   -3.06559504433111
H          -1.31376739467109   -1.84674992951760   -2.02662917980960
H          -1.21201941538680   -0.61493898688149   -3.07917451996707
