    26
        -50.45683225  Gyration_radius:  2.43343564095 Dipole_moment: 3.399
 S          -1.72376715013947    0.64850539321777   -0.02419085100598
O          -0.67527225564221    0.63744911392207    0.97157680050461
O          -1.34253895323349   -0.28705621853684   -1.18142584319400
O          -3.02346970386648    0.30750974591664    0.42618107279088
O          -1.73609565213112    2.06328905444548   -0.66169375112011
H          -0.79295193806016    2.33639613021059   -0.82123895513211
O           2.38157883770825   -0.91334676588049    0.13526117037278
H           3.06799854901508   -1.57865954358848    0.07621860496912
O           0.78605538968186    2.68283191330202   -1.02757553272749
H           0.92545707256117    3.62988756378227   -1.08187587545146
O           0.37307466629716   -1.77821161733754    1.55199160667188
H           1.64221359645934   -1.31870064243926    0.67517287151063
H          -0.01076429775168   -0.88948141895893    1.62269629089114
H          -0.36902287938384   -2.30092602106751    1.17759146642966
O           1.03244197832750    0.09337373388762   -1.94229582984209
H           1.59343289140226   -0.30369993447877   -1.23750325891827
H          -0.37709792997956   -0.16246881518839   -1.51592917181054
H           1.12568315427168    1.05417946296744   -1.86645398447365
O           1.81454854304798    1.63431266087869    1.09679017937112
H           0.93098433802237    1.33692464872066    1.37329997129109
H           2.27322322683563    0.81722278684705    0.84077740209457
H           1.25017145877001    2.36785218914350   -0.18965000265740
N          -2.03284861643545   -2.53123705200322    0.52184169130165
H          -1.98257435848952   -2.67695880927548   -0.47955381816458
H          -2.48220700522411   -1.62935868632622    0.65529480641630
H          -2.64825299205961   -3.23962887215097    0.90469293988011
