    26
        -50.44772977  Gyration_radius:  2.5129706158 Dipole_moment: 2.774
 S          -1.04809470028413   -1.52494979719508   -1.02078073198117
O          -0.41350290752635   -1.20960384210102   -2.27846615392907
O          -0.24837549033710   -2.47714516434092   -0.23051390462641
O          -1.42730381093820   -0.36569451776198   -0.24510708742680
O          -2.38414174521906   -2.29902515210787   -1.36122797977902
H          -2.05125373134210   -2.98525375909790   -1.92957303626811
O           2.00396296787903    0.78074210189352    0.22468754112605
H           2.92506925470574    1.01551054509533    0.10166276197516
O           0.46767978924114   -0.85144335796407    3.26817152590369
H           0.99304377208208   -0.48971122506438    3.98348155484817
O           0.91301062693747    1.07173076811776   -2.03404271179121
H           0.49143036469743    0.21271007350496   -2.24797074591960
H           0.15284236228793    1.68143443311832   -1.87824235849767
H           1.56466312474033    0.89954992442415   -0.70128577014457
O           1.59777049448243   -1.58414025339302    1.10403348930989
H           0.79763134285169   -2.01535258005906    0.50109427690146
H           1.79422430992868   -0.65770895278174    0.71142693537353
H           1.17657897520349   -1.41120966346884    2.02343987478725
O          -0.35554175665931    1.09070389750434    1.73593674739745
H           0.46250388331792    1.30677157267508    1.26711992703332
H          -0.88936827849430    0.59796578916913    1.08340122028342
H           0.02566362679040   -0.08040342722263    2.81355843631333
N          -1.38389189580761    2.32051076545850   -1.33102655152370
H          -1.44427479311215    2.97651549460281   -0.56215632168425
H          -1.65187055321265    1.40479916143487   -0.97283254312015
H          -2.06845521221080    2.59269717566441   -2.02478840443307
