    26
        -50.45683224  Gyration_radius:  2.43357555078 Dipole_moment: 3.398
 S           0.36478845891252   -0.04012235345850   -1.80514984360974
O          -0.92720825854488    0.68454718891626   -1.39865778766380
O           0.90953454273927   -0.73516127560745   -0.66008226931844
O           0.10177148515450   -0.82778516770243   -2.95353374663413
O           1.35189371495490    1.10360105674451   -2.15978132841136
H           1.63840161792992    1.53644273733224   -1.31129595807525
O           2.04537468893860    2.16176687981393    0.13798680715401
H           2.88450697997732    2.62303519723023    0.08945652845002
O          -0.47589297574868   -0.04255990486428    2.50986497485837
H          -1.01563564931185   -0.13072942919723    3.29616007402217
O           2.15004447810468    0.03118279856404    1.59422546171205
H           1.36391138720570    0.01321435793440    2.16447440259037
H           1.89869291740996   -0.50397585313485    0.82216992868803
H           2.18188786401129    1.37292360779670    0.75088261850379
O          -0.87266791345788   -2.04129734896534    0.88586887730462
H          -0.69149959492167   -0.83034912984494    1.93073709783051
H          -1.58969079324234   -2.06063664799554    0.21542246914506
H          -0.09338805197671   -1.81465657075270    0.35342774633849
O          -0.63559459168176    1.96742793805217    0.75379385928324
H           0.26668862012337    2.30951253113188    0.67346818299729
H          -0.84669972614674    1.21616945877774   -0.52089156427911
H          -0.61860108435228    1.28219623429208    1.46044074185220
N          -2.27572741932053   -1.88366754994867   -1.44313991171804
H          -2.83409321946688   -1.03944602106215   -1.48824507081601
H          -2.81554383521102   -2.63148460500559   -1.86329019827088
H          -1.46525363208038   -1.72014813904709   -2.03431208193449
