    26
        -50.45683227  Gyration_radius:  2.43352592491 Dipole_moment: 3.395
 S          -0.99719048507922    1.51910591650358   -0.30159660912105
O          -1.20367394331513    0.84078517831932    1.06109472305060
O          -0.20032386612052    0.66281961802204   -1.15167588382177
O          -2.26049779899758    1.91172071713089   -0.80977768053097
O          -0.14034929225616    2.77264398146577    0.01899183740004
H           0.78535684406495    2.46908513877851    0.22029304316873
O           2.26722897279294    1.86113920129232    0.52103337451967
H           2.94408449720649    2.52726513124745    0.38914810903310
O           1.36371932525848   -2.13660382406384    0.32207285407032
H           1.51987049035189   -3.04097932038063    0.59599007273746
O           2.38684897904257   -0.05211005590424   -1.20968346972598
H           1.48972255482081    0.17034427392602   -1.51185051431497
H           2.42015655146770    1.14871857806943   -0.17591313737849
H           2.27932664975059   -0.89513107370431   -0.73931083655783
O          -0.81746214261119   -1.96166115317151   -1.09256546863286
H          -1.70990741424006   -1.84414670055922   -0.70040379354758
H          -0.59942923561007   -1.06409517307570   -1.39080017315867
H           0.50842375329633   -2.14395176583990   -0.19843073750103
O           0.95836294062419   -0.07850314206404    1.98016652790085
H           1.14583644287107   -0.88018323788329    1.44046028210983
H           1.60219025889205    0.59447463105157    1.71532704251096
H          -0.34176701738171    0.44944944127910    1.46543597833417
N          -3.15788857916279   -0.89349537515134   -0.19910472490517
H          -4.08711818930994   -1.17301175871654   -0.49159932690898
H          -2.98709974387742    0.03841173427921   -0.56715760333065
H          -3.16842056248429   -0.80209096084710    0.80985611459795
