    26
        -50.45683227  Gyration_radius:  2.4335313385 Dipole_moment: 3.396
 S           0.45713908315511   -0.85705332800002   -1.56483507497992
O          -0.84771560914760   -0.04721165246618   -1.60035832405293
O           0.93618054926265   -0.94186431583675   -0.20313578457311
O           0.24667126955561   -2.08726884970720   -2.23619193902429
O           1.47097821690581    0.01276215576359   -2.35463818408233
H           1.71718298851197    0.79070225749667   -1.78573026454136
O           2.05480362417428    2.01665914758819   -0.76611034160240
H           2.89964091008463    2.41692888345309   -0.97891527026289
O          -0.60511913286546    1.10493780937601    2.22240188007326
H          -1.18527913133234    1.37817792738022    2.93380599633954
O           2.06493855829916    0.79212220680035    1.50785747614842
H           1.25002910770644    1.02500117392247    1.98244462790866
H           1.84927749325741   -0.04132702605288    1.05565834974060
H           2.15230118628262    1.59857701304061    0.14620764498742
O          -0.93553444810816   -1.42171012025615    1.67797100566502
H          -0.79769842468690    0.13610249102363    2.05869482907090
H          -1.61699379934562   -1.75735598553814    1.05593450181187
H          -0.12763576434246   -1.45237917917137    1.14086818213340
O          -0.65595204868668    2.08450081004302   -0.26506798160693
H           0.25229909583251    2.36590038184131   -0.44800823799602
H          -0.80765356110911    0.82901698266477   -1.06171136245658
H          -0.68173697449791    1.79971910256222    0.67691674472381
N          -2.21480670232070   -2.37157018634245   -0.53085837995881
H          -1.37365422752297   -2.48390423740510   -1.09027156520374
H          -2.76369643931027   -1.65168656437919   -0.98577572006659
H          -2.73796580974815   -3.23777689780437   -0.58715280818923
