    26
        -50.45683212  Gyration_radius:  2.43355140009 Dipole_moment: 3.403
 S          -1.26645265213659   -0.91793043466979   -0.97465170221269
O          -1.69284728624907   -0.47947943476025    0.43451078944117
O           0.15171450763671   -0.69105043980369   -1.14271084481891
O          -1.72324745059331   -2.24109911453643   -1.19617066816674
O          -2.00387189049188    0.06462676742355   -1.92276913373302
H          -1.55670093257033    0.95060679085879   -1.85462507715511
O          -0.74128207267146    2.34989987843845   -1.67309668089741
H          -0.86723328156733    2.92070707322101   -2.43308888027126
O           1.82991730032239    1.20596591515995    1.31476464252120
H           2.35910224689086    1.41622680526237    2.08482420718022
O           1.68410640098085    1.49160971989606   -1.44858764094126
H           1.36348512343976    0.57699397737403   -1.52871477459381
H           0.23535202508145    2.09967428973960   -1.65550636209990
H           1.95097567829868    1.57139338343706   -0.51806727652074
O          -0.76339197073783    1.78973513575805    1.02687473429971
H          -0.82675355966744    2.26717028927462    0.18688170448195
H          -1.32714727652539    0.44168712841099    0.71227555560395
H           0.19439131343554    1.63915299266804    1.19755400989683
O           1.71453965720599   -1.37097639502155    0.94739483906909
H           1.05108807708495   -1.94997640703065    1.38169611803828
H           1.35022508505540   -1.26772681265623    0.05369012120594
H           1.81756802112392    0.20710076786217    1.24614172314965
N          -0.47643415090881   -2.90551252168297    1.45970550254987
H          -0.84071828532061   -2.87513952895152    0.51128128722769
H          -1.15086742775715   -2.41805913480644    2.03767892189144
H          -0.46551720935999   -3.87560069086408    1.75271487485213
