    26
        -50.45683223  Gyration_radius:  2.43357050575 Dipole_moment: 3.397
 S          -0.53930888329613   -0.20500903966436   -1.74934272236382
O          -1.44689470418157    0.66441938075010   -0.86616431313249
O           0.45032866163214   -0.86262106833474   -0.92531527359016
O          -1.35339854527417   -1.04606979614314   -2.54827507893522
O           0.21385374537528    0.81329401696631   -2.64608654258548
H           0.88936239992503    1.27811965909252   -2.08296902069808
O           1.96538308863123    1.96648586370924   -1.07053820720001
H           2.70131830170840    2.34259808488639   -1.55651377149744
O           0.77278843534502    0.18468296228329    2.42836630549932
H           0.66781324885230    0.20467962434885    3.38015305480072
O           2.64800062686295   -0.05315304069106    0.38742136178643
H           2.22753920555709    0.04369345975611    1.25766394968164
H           2.03484331543579   -0.61731739173427   -0.11394620599684
H           2.33902551609543    1.21493502666164   -0.51181788904446
O          -0.44271666282683   -1.88116709960277    1.40636966485994
H          -0.00026483268112   -1.76732764575459    0.54997997513980
H           0.27069663076342   -0.61967758737851    2.10676139343835
H          -1.39219601709739   -1.88228617352107    1.15643756719698
O          -0.10691304311262    2.06768115471339    0.74600873815190
H          -0.93381532900283    1.24860700420770   -0.19154137633806
H           0.21140613675284    1.43709183406178    1.43168295048995
H           0.66384688078174    2.31779244905467    0.21595593453765
N          -2.77448068608320   -1.76403536449612    0.00379483572960
H          -3.48294625440909   -2.48793409596983   -0.03069937300698
H          -2.33567216864442   -1.71971892352529   -0.91191907129153
H          -3.24759904711436   -0.87776326367356    0.13453311437502
