    26
        -50.45381422  Gyration_radius:  2.6483646486 Dipole_moment: 1.738
 S           0.44143611251942   -0.63893062828941   -0.19932934359376
O           1.91988698202294   -0.28422787542652   -0.30145121321011
O           0.43920140627692   -2.09421068401902    0.23881598160675
O          -0.17393610535009    0.17369395748985    0.83592403832729
O          -0.16655649343352   -0.50356453482071   -1.49340738388274
O          -2.55484681295251   -0.76430676797116    1.62698165157391
H          -1.73429059611708   -0.31188346323670    1.34939359553439
H          -2.54754181364819   -0.77932693192574    2.58584079728209
O           2.53304798727956    3.16009674797633    0.53503481220484
H           3.31556023312034    3.15281008747956   -0.01854304513116
H           1.76395098622431    2.97231917291632   -0.06257918690755
O          -2.16921067649879   -2.10527440140576   -2.26679896579927
H          -1.82627225318574   -2.64206466599990   -2.98364376277345
H          -1.49476748589725   -1.42050235355611   -2.09050518556406
O          -1.89249519445923   -2.93781136205115    0.23871116397322
H          -0.54668172903652   -2.52631108694671    0.25911885202351
H          -2.32862267694934   -2.24137031042960    0.78069962345008
H          -2.16066048295081   -2.75760929120412   -0.69348970438741
O           2.27096607258010    0.90396005679432    1.86738400580044
H           2.45061225992286    1.81670885838810    1.51571377958388
H           1.32079516940365    0.87042921781774    2.03892771313738
H           2.19981815788214    0.13861178604421    0.60658835380754
N           0.45884307337244    2.34662447706287   -0.98591539350718
H          -0.17687504219871    2.98153994253145   -1.45443407327535
H          -0.07117847968569    1.85509078046412   -0.27307844905689
H           0.72981740176860    1.63550927231858   -1.65595865123494
