    26
        -50.45683221  Gyration_radius:  2.43346339257 Dipole_moment: 3.400
 S           1.64128191878703    0.18676131108316    0.81471567298561
O           0.74081562091755   -0.92897752636143    0.62658937618925
O           0.92294759026044    1.49377555054120    0.44676297390169
O           2.20810881140316    0.32783875650801    2.10588486557632
O           2.76497052550879    0.05349318419092   -0.24730559987977
H           2.34260702843791   -0.20112117106940   -1.11115493876423
O           1.54578267379549   -0.62593661016967   -2.46813950416098
H           2.13118519587745   -1.06685460269361   -3.08634829368483
O          -2.29813686531352   -0.33524603384520   -1.06359794804601
H          -3.22792866176748   -0.15881255083306   -1.21064959899078
O          -1.78965002534801   -0.55935279197124    1.48212882082346
H          -1.58688904002589    0.20537476910891    2.06362388303836
H          -2.17580579846837   -0.39200787048817   -0.07149432734885
H          -0.91024403019500   -0.93403090731485    1.31354814104503
O          -0.29598855434391    1.29728627838467   -1.75299041177298
H           0.41041523002824    1.44921055048347   -0.44485047986909
H           0.30779457625395    0.75341627424117   -2.27953216358854
H          -1.08503646057484    0.74118613454510   -1.55972828851474
O          -0.27484151578402   -2.19026167610421   -1.51484359674253
H           0.85774105225219   -1.30575732584940   -2.18335484201336
H           0.06902758439778   -2.03760721016988   -0.61814878234624
H          -1.12214254648011   -1.71558500922806   -1.53066878357969
N          -0.49716474726631    1.32030375859402    2.96990498500454
H          -0.64653862306142    1.50499653271953    3.95515818739081
H          -0.45749324741285    2.21327332970283    2.49281881734021
H           0.42518232812799    0.90463485599356    2.87167184600377
