    26
        -50.45683212  Gyration_radius:  2.43369223894 Dipole_moment: 3.399
 S          -1.84207643978956    0.05112432183576    0.01350766473075
O          -0.86423879228031   -0.88807297991190    0.51610522570023
O          -1.15134700728493    1.06650481667020   -0.90942443041238
O          -2.95328844683492   -0.50193550250192   -0.67034688540061
O          -2.32819548153433    0.89718730782290    1.22018153001526
H          -1.53281676788046    1.13853170914975    1.76662891177095
O           2.54993187252081   -0.17363802829835   -0.01878333751771
H           3.42200787838983   -0.18671574864402   -0.41446160972378
O          -0.16376925598183    1.46428046829187    2.58914212476643
H          -0.35512552860767    1.67063940619517    3.50566374071587
O           0.93908641178327   -1.79235666972816   -1.27380986781142
H           0.42484312304506   -1.53490583968470   -2.06955090525181
H           1.98656472691538   -0.80130589917042   -0.55830036948674
H           0.27415628631717   -1.74115533613093   -0.56857571088771
O           1.13319200510892   -0.75127890832303    2.30491959642365
H           0.36918845937302    0.60845214370013    2.58851807372510
H           0.40089156922785   -1.10691388887395    1.77305273424958
H           1.84756134371752   -0.60630379428068    1.66298666469697
O           0.96343562434903    1.97393417960657    0.12440079161541
H          -0.28073094749357    1.45516349938095   -0.52155063389394
H           0.72252207988846    2.05266608772843    1.05887563479757
H           1.61699443168649    1.24060016220133    0.05953684333547
N          -1.05366330005719   -0.99387058567901   -2.95015660148159
H          -0.94495121794452   -0.02630934462440   -3.23033231662908
H          -1.78553395383035   -1.00488395470087   -2.24488734137693
H          -1.39463867281117   -1.50943762203302   -3.75333951666929
