    26
        -50.45683211  Gyration_radius:  2.4334831074 Dipole_moment: 3.401
 S           0.38970823146048   -0.97486975169496   -1.51459981851976
O          -0.48236213615517    0.27202595289537   -1.72531206413740
O           0.53433070358536   -1.22979457036849   -0.09857187242632
O          -0.13694425001295   -2.03432720528316   -2.29466162960199
O           1.78608767911164   -0.56257529955524   -2.05157024743016
H           2.19234791384529    0.06809161072198   -1.39826025438559
O           2.76402148062345    1.07991356844084   -0.25560792270768
H           3.72099944063707    1.12824062437592   -0.28938242576241
O          -0.55418930444906    1.25970735111548    2.15296551381925
H          -1.11197133299296    1.73517167247928    2.76954253234085
O           1.88736175377759   -0.04784900964733    1.89609274703741
H           1.46411957753419   -0.73780564330118    1.35708861399801
H           2.52481475030009    0.65954810086784    0.62904503083212
H           1.14567068824410    0.47933443224888    2.23594726278635
O          -1.69877351630451   -0.95198102821854    1.38726641338717
H          -2.32528268854088   -1.00345929096051    0.63298985661492
H          -0.87580168592883   -1.29098236970006    1.00007670655605
H          -1.06122035521616    0.43657629867616    1.89199375669359
O           0.23325492318719    2.17555789116650   -0.23240369488445
H           1.19777387440651    2.09060421718258   -0.23356030925708
H          -0.22155646574936    1.06870431666183   -1.12798339762886
H          -0.07379974504780    1.92538803992767    0.66885273407171
N          -2.79849209607482   -1.34745314829244   -1.07262756530248
H          -2.93908027703782   -0.47443283790235   -1.56714477914666
H          -3.58868341743007   -1.94764155496527   -1.27870032057627
H          -1.97233376578127   -1.77569233687210   -1.48147486637541
