    26
        -50.45683221  Gyration_radius:  2.43343322484 Dipole_moment: 3.399
 S          -1.56908010136089    0.15121945012485   -0.95258636795090
O          -1.69175836404781   -0.46799017852980    0.44784208977111
O          -0.17205172436107    0.28227818832227   -1.30228058999642
O          -2.37590939108802   -0.59174294564735   -1.85000208230346
O          -2.13766042669722    1.58592535070292   -0.78978037968384
H          -1.47036796960367    2.12567199125170   -0.28693039985276
O          -0.30345041424978    2.91491507825373    0.53296728941278
H          -0.36803156820337    3.86177295274704    0.39657848942873
O           2.22294362429335   -0.24044434761625    1.23454724862798
H           2.87853664436942   -0.67819146313326    1.77845193578046
O          -0.14568713474409    0.65036658178642    2.09783820607339
H          -0.18442617571859    1.57881208328448    1.82562535010703
H          -1.07125458345964   -0.03831796431563    1.14783757580951
H           0.75386954473418    0.32336442347043    1.86755657446065
O           1.40217730653818   -1.81444471635546   -0.67278491718540
H           1.94438418129236   -0.90521299073068    0.53954526685346
H           0.66990471401775   -2.45963368201933   -0.56529177462723
H           0.97075461269711   -1.08358449180963   -1.14388259462959
O           1.82624411379748    1.89041548692940   -0.50883869116963
H           1.27301657080987    1.32707911020551   -1.07643827719822
H           0.56965437717002    2.62064680954112    0.12340756789338
H           2.21356125342700    1.27493095637959    0.13512437634766
N          -1.03100399476960   -3.03676363273040   -0.72586173788826
H          -1.48745787897291   -2.32048908625032   -1.28420028727194
H          -1.48013868039934   -3.01693813361368    0.18215052431456
H          -1.23676854546989   -3.93364482024590   -1.15059437512636
