    26
        -50.45683218  Gyration_radius:  2.43366801193 Dipole_moment: 3.399
 S          -1.37026593637788    0.14270066510273   -1.22279651561286
O          -1.79608552382664   -0.03347235284901    0.24251143323139
O           0.05588338035535   -0.06542981773515   -1.33963853931168
O          -2.19474082498190   -0.67331946802603   -2.03686170161684
O          -1.64158935284283    1.64054372969836   -1.52468931059529
H          -0.94527415025432    2.17861628724083   -1.06102102470881
O           0.24804929651579    2.95689523816422   -0.26859154181627
H           0.40062354677512    3.82535738632733   -0.64510629616304
O           1.95069390598292   -0.25873077839304    1.63047031269999
H           2.42547512605409   -0.63231748579560    2.37367203779406
O           1.06533280599436   -2.13877327460326    0.05827308937981
H           1.62907519335543   -1.03347858045275    1.08389380943373
H           0.20692817714241   -2.59647722133819    0.19047521913362
H           0.85915017834337   -1.50555036914235   -0.64788960482625
O          -0.26927742432040    1.22077882319447    1.81079270088936
H          -1.19199654487825    0.46174299955330    0.91287293191232
H           0.56379675717519    0.69670848167215    1.83207759835449
H          -0.07847918640313    2.03032757252109    1.31503272562045
O           2.23018567883163    1.34032293532403   -0.62883654014501
H           1.08472583991087    2.41827745449576   -0.43066492603327
H           2.39669896757444    0.87186570382828    0.20560819435184
H           1.64699008164474    0.74277211289983   -1.12722763280894
N          -1.54351798595355   -2.90062852793812   -0.12313862090641
H          -2.09031875497739   -2.55472957168682    0.65652800784688
H          -1.87661908869347   -3.83247905081219   -0.34204570820139
H          -1.76544414214514   -2.30152290125187   -0.91370011789986
