    26
        -50.45381451  Gyration_radius:  2.64775530149 Dipole_moment: 1.737
 S           0.02990919345898   -0.75059707835877   -0.28482311061591
O          -0.32151628166455   -1.14772471560846    1.04986412038630
O          -1.13977922751595   -1.03980944604927   -1.21749175372861
O           0.40677867287787    0.64690174659919   -0.41075784111145
O           1.15425477441928   -1.62235914482856   -0.81952858033737
O          -3.24791952831081    1.83757785828215   -1.65657146443742
H          -2.95691509583566    1.63097618003437   -0.73097939989956
H          -3.98946218876419    1.25955163979194   -1.84350091893221
O           2.83280642963365    1.18158028852527    0.59093374111772
H           1.91367763279970    1.09367624886758    0.27076818366872
H           3.30592176912318    1.68739678627615   -0.07242971475976
O           1.51983575213767   -2.09675032532448    2.74724309863075
H           0.76766367230338   -1.71234528135286    2.25587003247345
H           1.29667289416234   -3.01607682803829    2.90424847534501
O          -1.02554945728599    0.93494619335791   -2.74264986326282
H          -1.12605832326285   -0.31577997621660   -1.96393228661807
H          -1.87732468862554    1.37802413087850   -2.48315749091464
H          -0.34352993291262    1.32724416337925   -2.18199179640854
O           3.09982394357354   -1.46499384237389    0.70966502558653
H           3.19841062151827   -0.48714348663757    0.76539962397474
H           2.69310635389805   -1.74167508549882    1.56491102898617
H           2.03393971908903   -1.60219199530500   -0.19902979819418
N          -2.22810640691386    1.09502370198506    0.72777503304081
H          -1.24911992391962    1.29111514871732    0.54441094660121
H          -2.27831907505278    0.09249147682311    0.87055969316045
H          -2.46920129890911    1.54094164207649    1.60519502625668
