    26
        -50.45683221  Gyration_radius:  2.43356388458 Dipole_moment: 3.398
 S          -1.07989967505645    1.45248050770600    0.34250680029029
O          -1.59276236519678    0.47256732676254   -0.72353990421666
O           0.28173595266613    1.11527123948875    0.69341557557007
O          -1.30408863180601    2.77605235302971   -0.11174193449248
O          -1.95992982430331    1.16155742708851    1.58719706539256
H          -1.66770257112934    0.29308675899372    1.97414157530143
O          -1.10052352366061   -1.13187437908897    2.52665837264203
H          -1.30908763869532   -1.24735758960001    3.45532576138599
O           1.57918045783291   -1.95207273474589   -0.47119208479427
H           2.05309019983734   -2.58104376592843   -1.01628736143651
O           1.90671018796976    0.47494146781771   -1.36125806441098
H           1.73663998953112   -1.05139869663550   -0.87920240690272
H           1.34533773600507    0.87585899716692   -2.05985994829735
H           1.54246909013717    0.86401485663581   -0.55005011561774
O           1.43130824539276   -0.87045303059873    2.08769860346887
H           1.27063745229996    0.01061335329218    1.70885304129761
H          -0.09621724759868   -1.07472738503298    2.45868340918787
H           1.66610902959487   -1.42105185210118    1.32272364255000
O          -1.07065444465599   -1.91943044342272   -0.11584105223292
H          -1.20049209280818   -1.92534666910608    0.84368305911868
H          -1.39342591820270   -0.51465982231701   -0.51065129048083
H          -0.10388851691434   -2.01852597773548   -0.27311698050475
N           0.00029553389925    1.90596834023441   -2.67878389865007
H          -0.75444955437724    1.31376972751084   -3.00456273433559
H           0.16973642411371    2.60674762552568   -3.39112870088937
H          -0.35012829487780    2.38501235506384   -1.85367042894465
