    26
        -50.45683213  Gyration_radius:  2.43365080959 Dipole_moment: 3.401
 S           1.82782376073290    0.11442432705097   -0.20766615063683
O           1.25081618395565    0.80470801868758    1.03746126379779
O           0.74743933968539   -0.29836955304980   -1.07560773230552
O           2.80906716779344    0.96021751599363   -0.78210890613233
O           2.49361784031256   -1.17524898889402    0.34163849625736
H           1.77092299682518   -1.81064005439502    0.59364536632787
O          -2.54536209547914   -0.14213249693567    0.18499736195824
H          -3.42858840491111    0.18431770814358    0.36011107183351
O           0.50808264398511   -2.77380649188451    0.95954431067930
H           0.77333963937537   -3.69499740683367    0.97645360502839
O          -1.25699013904642    1.47711749493335   -1.39852184586262
H          -0.55787963893068    0.82424200455991   -1.56295626903652
H          -2.10883377117446    0.53313987863217   -0.41163588156467
H          -0.75018134818864    2.25552190334641   -1.08032357904904
O          -0.65268478832914   -0.51576435794295    2.03639107497512
H           0.46769743934131    0.29566589209039    1.46970341412659
H          -1.41027347449930   -0.38060890292377    1.42242108206830
H          -0.35684749800699   -1.43024781892167    1.91921171956868
O          -1.11580887839673   -2.22863662394294   -0.97360481213633
H          -0.47181794690880   -1.59305890468115   -1.32991849587615
H          -0.14548846169725   -2.67309772172250    0.19848628261203
H          -1.83184150045251   -1.67367008818512   -0.62326115443030
N           0.74621215988701    3.14257942699213   -0.60421441929931
H           0.76900187672371    3.25084807141952    0.40290510477826
H           0.96631951158257    4.04261275456146   -1.01479798509293
H           1.50225738582025    2.50488442390217   -0.83835294258653
