    26
        -50.45683222  Gyration_radius:  2.43345678733 Dipole_moment: 3.396
 S           0.79419626936657   -1.66062775707844    0.05602683383787
O           0.42264963118441   -1.14139347874642   -1.34111005400236
O           0.22268441003610   -0.79291588878887    1.06176911971466
O           0.44832034137294   -3.03250339439517    0.13759304709922
O           2.33550386721275   -1.49579695859192    0.13005885445532
H           2.53616406913214   -0.52678999447470    0.23092468545277
O          -1.15777230115509    2.27684326627698    0.00415376474409
H          -1.80671092139099    2.92850676774711   -0.26323276451736
O           2.74657594055222    1.08045250450887    0.40313490099372
H           3.59728206684946    1.27494664541265    0.80033746659722
O           0.75752664769349    1.68940022512867    1.93410795408850
H           2.04306464653624    1.38304219024222    1.05895960188309
H           0.08732825821618    2.14205942036135    1.39612073292056
H           0.47707572103296    0.75832024625544    1.93344869024459
O          -2.30897485881035    0.02025796074623    0.61390919691368
H          -2.52143836865531   -0.67544061083745   -0.04564050892732
H          -1.50253689499183   -0.32416467363189    1.03011494147288
H          -1.66701293850830    1.43862655317025    0.20559346479865
O           0.81198832171834    1.34280245626946   -1.54393489039503
H           0.08190748875706    1.75861916310380   -1.03086116156697
H           1.62316946841064    1.47075041822067   -1.03089866603162
H           0.56520479520590   -0.12886489666789   -1.45940212830704
N          -2.24046493889882   -2.21740189873496   -0.93680859063801
H          -2.96632972465369   -2.92226869191680   -0.99578464020336
H          -1.44232576698239   -2.63688675504726   -0.46766736070744
H          -1.93707521921807   -2.00957281852275   -1.88091250991562
