    26
        -50.45683225  Gyration_radius:  2.43358383142 Dipole_moment: 3.398
 S           1.00457509142357    1.34692570418830   -0.75544416187253
O           0.06616755446585    1.29712540822021    0.34353238870715
O           0.92536911166358    0.03921428664456   -1.55751577144579
O           0.86941677418396    2.43743885795933   -1.65033169729079
O           2.43001171286957    1.33602681811596   -0.14220079983161
H           2.44394653979861    0.66406313315723    0.59120719845089
O          -1.46381708066465   -1.79771661332182    1.07491292565431
H          -2.11677608694500   -2.49818526697911    1.09272746249467
O           2.34930773325788   -0.45149368319892    1.77547873789455
H           3.02921762292553   -0.30861814475914    2.43622112241640
O          -2.36331893569672    0.27416452379002   -0.22428078842857
H          -2.28931262596913    0.37755568937975   -1.19783537406704
H          -1.86976229601201   -1.04781584381981    0.55022044383823
H          -1.64543173561688    0.84009660421788    0.10214203689570
O           0.95592630705762   -1.98160956308496   -0.04760975439556
H           1.57994966260669   -1.71761492627107    0.64408303353263
H           0.06363222276233   -2.00516839797752    0.36763652173586
H           0.93114175281879   -0.80779456040260   -0.97276743548468
O          -0.03409084872539   -0.02859020640645    2.67610195207950
H           1.46340438104534   -0.29604880368809    2.23117296664258
H          -0.15550012224139    0.67349203195777    2.01432685879673
H          -0.60803314096889   -0.74955105514682    2.36902867768650
N          -1.55104077303274    1.00595075097506   -2.71885045032944
H          -2.11833411798588    1.47783008187926   -3.41363385925930
H          -1.05344267993517    0.25717786797354   -3.18607202077475
H          -0.84320601308711    1.66314529659682   -2.40225023364571
