    26
        -50.45381469  Gyration_radius:  2.64772133923 Dipole_moment: 1.739
 S           0.64575840208075   -0.36015759269738    0.31770440821255
O          -0.21171662935329   -0.66329996139356    1.42920500369475
O           0.98383805891938   -1.64983940437939   -0.41994753639163
O           0.08599330247180    0.59511246785802   -0.62302550264158
O           1.99078146766924    0.14952933348808    0.80834136930182
O          -1.24153372411617   -2.23885350926751   -3.18119946778852
H          -1.65300796188008   -1.94844232100198   -2.32657476393272
H          -1.08399797452867   -3.18098466882849   -3.10063560919200
O          -0.11116464166022    0.76520365088132    3.69171820987167
H           0.20721920400661    0.17190310258610    4.37454889342851
H          -0.29326368574474    0.20933481446677    2.90885143738252
O           0.09552192678047    3.11263284016524    0.29235852602377
H          -0.01565898080213    2.22051288373332   -0.09078100549107
H           0.47558895139334    3.66043284762824   -0.39697255989497
O           0.96475395057373   -0.85655556006529   -2.78820150827548
H           1.09661758632762   -1.40986550685908   -1.42571572720087
H           0.17341619530311   -1.36373240598783   -3.11350059165086
H           0.62656158023052    0.00032807853594   -2.49696165573340
O           1.63169024787496    2.14275587898957    2.23873271705961
H           1.07638057669992    2.68905863304311    1.63689098536528
H           1.01381987410017    1.78259291178396    2.91847970704348
H           1.90771173120023    1.01675565481336    1.44114321907519
N          -2.06742905421010   -1.34997964146137   -0.77194137798699
H          -3.04203862121170   -1.23463397030551   -0.51964718630461
H          -1.64687669526997   -0.42624748600377   -0.79522983374771
H          -1.60896510690465   -1.83356106963537   -0.00764014031898
