    26
        -50.45683219  Gyration_radius:  2.43351042221 Dipole_moment: 3.399
 S          -0.34677207551120    1.26331187185634   -1.29529920108440
O          -0.84267857152334    1.04460339750174    0.04532065171700
O           0.44548611820717    0.03083892843276   -1.75678891570000
O          -1.31483771883625    1.57652640630972   -2.28177438959128
O           0.71346657426163    2.39362344575608   -1.21348426862432
H           1.28106069352407    2.22504351747125   -0.41422181852329
O           2.13873104345058    1.85696103389821    0.92228365079752
H           2.57932759208171    2.63329176881816    1.27225630525239
O           0.38537357403091   -1.73942479248299    1.83055222811947
H           0.43466326971849   -2.61992118406640    2.20423435810377
O           2.07135025457380   -0.74387492963839    0.00954941007205
H           1.11720870599149   -0.31641383996204   -1.05831620162018
H           2.38807585547187    0.09113563907180    0.38379185337735
H           1.51519973594193   -1.17242322839395    0.69959935706068
O          -1.85631149670627   -1.40378352636376    0.54555009797077
H          -1.72852949041991   -0.44298563875657    0.49375745715873
H          -1.98323005942213   -1.65214971700828   -0.39583921341824
H          -0.48736935903156   -1.68940007093536    1.34229710768010
O           0.28365312227383    0.96307421060480    2.48121085832659
H           0.36820171539664   -0.00331522693667    2.53105437226927
H           1.46346531244916    1.56906311764787    1.61347296989196
H          -0.37234932535505    1.11065123242720    1.77874069367443
N          -2.08340309774940   -1.32985869934213   -2.16742815903799
H          -1.25455229161009   -1.69334970398492   -2.62289915552875
H          -2.02816043165363   -0.31772795025019   -2.24248161239144
H          -2.88706963955712   -1.63349605167461   -2.70513844595365
