    26
        -50.45683214  Gyration_radius:  2.43361943312 Dipole_moment: 3.401
 S           1.37344230166084   -0.96075751566571   -0.76636791336297
O           0.48358576162454    0.07035106594807   -1.25214379293622
O           0.86872035255660   -1.47775992809235    0.58928373382714
O           1.58234469201976   -2.06829862037535   -1.62543790494746
O           2.72870832616212   -0.28004436970656   -0.43764900865920
H           2.53679854500813    0.57512250135099    0.03287584914186
O           2.10533521109952    1.95623785283850    0.78307568314341
H           2.80458573464893    2.60984776573468    0.72711211060155
O          -1.94878618631883    1.34165587978232    0.96695387384946
H          -2.79199568781762    1.46809153685271    1.40322865380235
O           0.26641080205031    0.41584903901273    2.14383801172546
H           0.60861744606760   -0.73159352579154    1.24859761917868
H           0.95225285051451    1.07129721832933    1.95008563930926
H          -0.57986853982220    0.77722218524750    1.79399646800118
O          -2.15396648637914   -0.40662453978697   -0.95411851450535
H          -2.06355961013646   -1.37463539032807   -0.81678138418831
H          -2.09969794631746    0.65130565483551    0.25761598121859
H          -1.28846528731956   -0.16474458503961   -1.32082201816290
O          -0.00168580807300    2.61733437162929   -0.55639827020174
H          -0.78178129948947    2.43587774566278   -0.00687538203933
H           1.32360929631243    2.32088968881563    0.26112016258210
H           0.09917243021567    1.81826373202799   -1.10138834387010
N          -1.18434107502587   -2.94889359565843   -0.83753707967033
H          -0.96053432636682   -3.22394500628330    0.11154171960830
H          -0.29840934160601   -2.73631188168688   -1.28811221562632
H          -1.58049214527170   -3.75573727965797   -1.30569367781823
