    26
        -50.45683226  Gyration_radius:  2.43359709537 Dipole_moment: 3.397
 S           1.27082772243021   -0.03143485573728   -1.33297117889739
O           1.72986029600365   -0.53787797485001    0.04273694109606
O          -0.03574728767941    0.57622530796573   -1.21267936214842
O           2.29447301360605    0.77955221813125   -1.88330229290173
O           1.10103060777118   -1.32050658871442   -2.18020265720188
H           0.28000913344203   -1.78746410288476   -1.86813946474429
O          -1.79325752621306    0.13553648151678    1.81495532329979
H          -2.14033979588723    0.31423299770005    2.68954952519286
O          -1.08561394822737   -2.45903057223063   -1.28451391555954
H          -1.48082978145833   -3.04799969898604   -1.92964206355264
O          -0.09080326432684   -1.83597343464047    1.21078844037485
H          -0.50605522836243   -2.31817077804181    0.48098370323634
H           1.00981709023705   -1.06944693417068    0.55120238291420
H          -0.73857070004224   -1.15728710418125    1.50888861308859
O          -0.40725706160505    2.16030595022855    0.93784781799338
H          -0.39199480857450    1.80868368750524    0.03327069079229
H          -1.26339667620291    0.94335938856824    1.55206962699436
H           0.54656455238338    2.28889869406246    1.13184229673323
O          -2.52119815916720   -0.36203359726866   -0.82328394692475
H          -2.54541953706234   -0.21496677886085    0.13656785671653
H          -1.79178448776849    0.20103636550232   -1.13390851645830
H          -1.73277828462496   -1.69757577951746   -1.15064292693713
N           2.31019174089101    2.21225896899069    0.76134387319732
H           2.89540422762101    3.03426976801633    0.85637077628342
H           2.35072790399588    1.91710658649205   -0.21046436074617
H           2.73614025882420    1.46830178540852    1.30133281815440
