    26
        -50.45683219  Gyration_radius:  2.4336579436 Dipole_moment: 3.399
 S           1.82294466220859   -0.00020689435535    0.26920892818254
O           0.75024372906869   -0.87173864597053    0.69420300119879
O           1.23306838923335    1.28938880004752   -0.32141004979978
O           2.77975753519117    0.34785586164415    1.25491740629217
O           2.52395217753280   -0.68772421824888   -0.93252610147969
H           1.81909952376238   -1.05818014239251   -1.52864948190294
O           0.58297961716854   -1.63183047311048   -2.42298814714123
H           0.87164468097461   -2.35313892512251   -2.98480899813497
O          -2.53994925202121   -0.04798516943832   -0.28206407617149
H          -3.43049694988400    0.30227526056475   -0.24294809606558
O          -1.30010306584662    0.31810168969123    1.98038033819325
H          -2.12354492839523    0.14147511842895    0.60851719985415
H          -0.58518513600439   -0.28979545975506    1.73252685424136
H          -0.81205110379108    1.14011542753333    2.20405980831229
O          -1.06291742177967   -2.38659404894760   -0.58106278791208
H          -1.79112086060902   -1.74505176341454   -0.54159044819153
H          -0.07607027529590   -2.02026568416517   -1.76624993310639
H          -0.43698138404375   -2.08144341624604    0.09769745093279
O          -0.62995991996404    0.79934031245073   -1.95040221837945
H          -1.39358403598484    0.52495426057181   -1.39295386247948
H           0.46585569332405    1.12805077160009   -0.98819578362660
H          -0.31107789702309    0.00326686353459   -2.39996298234087
N           0.66318468334212    2.16177399546075    2.38573735436550
H           0.68728561081919    2.85351616365623    1.64580655057794
H           1.43442299382583    1.52496959162887    2.20442549122721
H           0.85860294419268    2.63887072435612    3.25833260336042
