    26
        -50.45381446  Gyration_radius:  2.64785108679 Dipole_moment: 1.726
 S          -0.44849563217398    0.52750143249640    0.40547875365009
O          -1.22181346263269    1.77299104594020    0.00519663178466
O           0.77994450326026    0.88755702308620    1.05659035553155
O          -1.36030354940894   -0.16987597844890    1.40764168931422
O          -0.27786341255960   -0.32524092632030   -0.75840994892736
O          -1.03098373171113   -3.74510187683474    1.26044286164920
H          -1.30391600225380   -3.79999529486800    2.17773630579292
H          -0.19154288533763   -3.21645448574421    1.24838481956759
O           0.69746802222630    0.98065715625790   -2.88391480085254
H           0.14368080040171    0.75278057199145   -3.63298597182100
H           0.41128283861723    0.41146609171969   -2.14282976584070
O           2.12211548602203    3.10059910164856    0.36896923219272
H           1.76983284591499    2.24095654853158    0.67208271614309
H           2.07806243905353    3.69029429497844    1.12390985473506
O           0.20153454795075    3.17607324092789   -1.46191867749808
H           0.47166840282224    2.50736797875025   -2.13201943814127
H          -0.65867633553470    2.43164294127065   -0.63424946168732
H           0.99185633511111    3.31223674249674   -0.88718816653497
O          -2.40621079023062   -1.91545719550443   -0.04085720611492
H          -1.80854333534927   -1.67529119131685   -0.76089677440931
H          -2.00952751289320   -2.72328267179576    0.38260800433804
H          -1.92413526746156   -0.86631649865499    0.87985481114192
N           1.06930010058033   -2.05689596358471    1.14600699269614
H           2.03564986488678   -2.36165809539503    1.14734770278442
H           0.98702825099217   -1.29776404481304    1.81311926747847
H           0.88258744964266   -1.63878992676518    0.23990020304913
