    26
        -50.45683223  Gyration_radius:  2.43359603601 Dipole_moment: 3.399
 S           0.49427538124041   -1.24123580142247   -1.26791945704829
O           0.36537951070020    0.20713991429299   -1.76304815653750
O          -0.02728765603528   -1.34012901549742    0.07707482265111
O          -0.08301298702455   -2.10431547260739   -2.23239572185213
O           2.02471253265032   -1.48460217320904   -1.18549460802618
H           2.37354305066980   -0.98546786043083   -0.39897025486641
O          -0.75377423778926    1.65387190747369    1.79559628404089
H          -1.25227088334944    2.38945134475364    2.15306465879826
O           2.83151491351020   -0.13859435880215    0.91640250611984
H           3.65605117931864   -0.47537110654382    1.27135381761074
O           1.18275665684737    1.85551196397321   -0.03721472979264
H           0.48307937817550    1.87007241611263    0.65512848459080
H           1.94577799355557    1.39806908128466    0.34504572875796
H           0.68613765426718    0.90898394716528   -1.08177191470660
O          -2.32554477818087   -0.01214933443697    0.55300609023792
H          -1.63673538811626   -0.69496038465443    0.51502439985844
H          -1.41493153431549    1.06924956325453    1.32279077612025
H          -2.58093087532402    0.08462836971031   -0.39004876303495
O           0.82247431765308   -0.53008880702186    2.49166644851457
H           0.39141344663163   -1.06417933021080    1.80279817449976
H           2.12359475270891   -0.30767306121901    1.61412873210325
H           0.29801801255665    0.28682516145148    2.52478298115840
N          -2.46872021235688   -0.27388938892021   -2.15436320591584
H          -2.03763124325085    0.50955019882659   -2.63069869940920
H          -3.29217908245722   -0.53864125628041   -2.68258863454343
H          -1.80570991228028   -1.04205651704381   -2.21334976932511
