    26
        -50.45683219  Gyration_radius:  2.43362082413 Dipole_moment: 3.400
 S          -0.27004656879397   -0.17000848119252   -1.81479405451380
O          -1.53248907772951    0.04811674328769   -0.96719023395023
O           0.85913462835379   -0.41512439306703   -0.94546403210652
O          -0.54255762277147   -1.16290448630906   -2.78852797765513
O          -0.02921447473941    1.19900107300072   -2.50491598388174
H           0.31129814160645    1.83336634282006   -1.81861389992109
O           0.87192916837313    2.78099869250227   -0.61653380956983
H           1.37288261563820    3.51948445994593   -0.96716198597250
O           0.44439159780591    0.15856994701474    2.51185821831050
H           0.28357717589377   -0.01164602247791    3.44053823193318
O           0.40736392017410   -2.05909447438051    1.14425498427209
H           0.39980726663275   -0.72926735969171    2.05116468440883
H          -0.41298878881266   -2.45735384848927    0.78042464610980
H           0.79691904253609   -1.63159998495557    0.36480316815635
O          -1.11139220986025    1.65359370711031    0.93258940866794
H          -0.51770292595867    2.30378135605076    0.52965545864171
H          -1.39660801558403    0.69535982929408   -0.17846855320785
H          -0.57696261923520    1.14571102346613    1.58495954244785
O           2.33241627198684    1.10843483882652    0.70284959735120
H           1.51981430447064    2.21116449410828   -0.09498335780632
H           1.86344450967488    0.87304447609821    1.52023163303877
H           2.08837202440741    0.40668629441203    0.07546278932329
N          -1.61510120490298   -2.81582502403295   -0.51557006391860
H          -2.45489088049907   -2.27192817762736   -0.35580183689852
H          -1.89914282090381   -3.76924137109755   -0.70925065052366
H          -1.19225345775982   -2.44331965461795   -1.36151590273471
