    26
        -50.45683223  Gyration_radius:  2.43366838623 Dipole_moment: 3.396
 S          -0.72373156624028   -1.55183377671345    0.67948797358268
O          -0.64611427791583   -0.19092776987867    1.16191892257926
O           0.20369618177817   -1.72007186999814   -0.53350194279427
O          -0.43132357926655   -2.57112812262038    1.61966158423284
O          -2.15043983591263   -1.75370241959605    0.10348056951300
H          -2.38503762769520   -0.94559472811532   -0.42702797402324
O           1.01950508004279    2.18565182780023   -0.84608605070330
H           1.71336361595324    2.75501209684389   -1.18026711304638
O          -2.66613394569673    0.42767436359450   -1.25874716363638
H          -3.60713036576344    0.57784305005792   -1.36460542108109
O          -0.08581748226522    0.15757253157235   -2.19339400430628
H           0.11602226280734   -0.96822214322700   -1.23099361615138
H          -1.03998058434092    0.31935031795524   -2.16244304525256
H           0.34895520638200    0.93702847998780   -1.77809516232333
O          -1.53158944519177    2.17903827743401    0.26325223578336
H          -2.31483731518795    1.17656814940460   -0.68228783405805
H          -1.26706416515745    1.47061556723744    0.87461847310554
H          -0.70077118233194    2.45552049712102   -0.15720911430020
O           1.82411316898951    0.88642745382151    1.26451349462064
H           1.40282019314641    1.71097592075032   -0.05225859230567
H           0.92109725840923    0.60796350388406    1.48614581716789
H           2.30592386597946    0.03188472865139    1.22415357873123
N           2.44875114972391   -1.76426424765214    1.30422750582373
H           3.13606080088380   -2.20190247522850    1.90686965973765
H           2.57915853504397   -2.13487945671511    0.37038840068911
H           1.53050404382374   -2.07659975636849    1.60819882841211
