    26
        -50.45683224  Gyration_radius:  2.43354734961 Dipole_moment: 3.397
 S           1.27265794911517   -0.67732654346575   -1.14652173997298
O           0.24138534960220    0.27169113576761   -1.77542633970431
O           0.86877242320783   -1.00377287800044    0.20295335773162
O           1.47866423649254   -1.77072610202635   -2.02429888471505
O           2.56639737977869    0.17363168269249   -1.04500168410051
H           2.44407022457914    0.83259382635537   -0.30992700717962
O          -1.77275176383994    0.84652182407063    1.63354898655950
H          -2.65546525088585    1.08242194722717    1.92077761054963
O           2.13882928254601    1.85923347948954    0.91859353848944
H           2.95419257545572    2.18743316834666    1.30165095642198
O          -0.35683485890593    2.16120902179860   -0.21473843651002
H           0.49143860333293    2.36144521924686    0.20706543222975
H          -0.03029881113721    1.05410554747571   -1.16414340136904
H          -0.92858486312700    1.75292949321954    0.47485435665290
O           0.81137360945849    0.33704832415155    2.52836823509527
H           0.88970544109801   -0.39577995881848    1.89399863750449
H           1.68301935138286    1.30999822504945    1.63078100139735
H          -0.12491067793696    0.59211052234127    2.48554783303746
O          -1.75296995294632   -1.52635217197943    0.55723712120934
H          -0.78377728455659   -1.57281731633768    0.58230597520484
H          -1.84500613494635   -0.06225880263757    1.21949463216467
H          -1.94905552094115   -1.69328115006680   -0.39022516012790
N          -1.51831766891638   -2.00999859777819   -2.11274876444281
H          -1.69139332785642   -1.17663124811492   -2.66232191414862
H          -1.92106245608290   -2.79528066621599   -2.61111718494812
H          -0.51007781396129   -2.13814799179325   -2.10070714702938
