    26
        -50.45683212  Gyration_radius:  2.43359677664 Dipole_moment: 3.400
 S           1.13043686366545   -0.74507331520705   -1.25051077548395
O           1.00911328094136   -0.86632047823472    0.18527652807469
O           0.27201402692722    0.43077418198556   -1.74059165820264
O           2.44355171040803   -0.59286988699611   -1.76126372457206
O           0.45934063913865   -1.99734106222309   -1.87480714180337
H          -0.39060074547880   -2.16600470106870   -1.38625656720402
O          -1.49159515771641    1.02536575778710    1.80454109748470
H          -1.90982239141278    1.73433450463986    2.29414076370246
O          -1.75248644970142   -2.35390174287652   -0.51065430019271
H          -2.06852147959970   -3.25782466542633   -0.55859731762096
O          -2.03945314368884    0.38006444526497   -0.73158371597785
H          -2.24068758801709   -0.56695599661531   -0.71715641142875
H          -1.91825706588784    0.65986899932069    0.20448611411593
H          -0.67821111340731    0.44519913117823   -1.34497851837504
O          -0.92788693165880   -1.69861843862456    1.84769168011710
H          -1.48899225579485   -2.18800431835936    0.44828098988116
H          -0.04257486873972   -1.52399888605535    1.48527598417239
H          -1.27834497492987   -0.81778375454882    2.05928238881025
O           1.07049474645172    1.44186546323613    1.57838904809641
H          -0.51995376546516    1.25965094123934    1.74466231787261
H           1.23168712751478    0.53383703176460    1.27562708138845
H           1.46992529729067    1.97920901588228    0.86025567823611
N           2.30948402015844    2.22482386829220   -0.71715838154359
H           3.14440131084191    2.79643745177484   -0.77501263300289
H           1.64892048044430    2.57660164370495   -1.40013743141082
H           2.55801841771621    1.28666482016648   -1.01920110513044
