    26
        -50.45683227  Gyration_radius:  2.43355677323 Dipole_moment: 3.396
 S          -0.26754302163685   -1.80365244804633   -0.26099095259442
O          -0.05470681139918   -0.98507063864821    0.91180336423993
O           0.03520702286414   -0.98125030434229   -1.52264592109593
O           0.46257301191720   -3.01669456917753   -0.32340295504321
O          -1.78947092291854   -2.09427329674737   -0.34765470628259
H          -2.27550421741188   -1.25072045326097   -0.14338796422618
O           0.42594695374397    2.47930152376060    0.44587177329952
H           0.87012127689680    3.32194520812478    0.34598422940235
O          -2.96576639975403    0.18144398460568    0.21542453429991
H          -3.86256615489842    0.05994972203494    0.53204608059578
O          -1.05644131572262    1.29142502100526   -1.43592892844909
H          -1.90514566729649    1.10056056301905   -1.01068618299343
H          -0.52322193159337    1.80717527851287   -0.78878370071006
H          -0.39144348699137   -0.04451656403456   -1.52047149897498
O           2.14699525038721    0.57170045689405    0.88021484324770
H           1.14481636375849    1.79792380523445    0.59232115278583
H           1.45079086293607   -0.04919723845142    1.14835046804143
H           2.60469388873024    0.08106317056319    0.16343343343048
O          -1.36612383850807    1.06898176595969    2.03863585950402
H          -2.43430263555885    0.55952164576420    0.98433232951254
H          -0.82256790656780    0.26796547292342    1.94634846596672
H          -0.82248459912220    1.77367117094717    1.64952061422299
N           2.86029132911477   -1.31271347337960   -0.95219539990538
H           2.58138517257348   -1.04928227381583   -1.88987920753803
H           2.18950799978676   -2.01024413203393   -0.64141368987225
H           3.76495978666022   -1.76501340742000   -1.01684603085188
