    26
        -50.44772980  Gyration_radius:  2.51296908249 Dipole_moment: 2.774
 S           1.08451594364679   -1.65181505882437   -0.74890900806258
O           2.28382006734609   -0.99748119157968   -0.19734286552550
O           0.48632035536042   -2.55883895385019    0.20155018534177
O           0.15952947368474   -0.69479587768925   -1.31271879803125
O           1.61610249029332   -2.53051155780095   -1.95117507310294
H           2.14228700159513   -3.17029379247843   -1.48368956647983
O           1.76577595130216    2.88479118749920   -0.43031747854654
H           1.66392758151406    3.78327262266853   -0.11263914516429
O          -0.51324634770396    0.94345257375177    1.87677751152313
H          -0.69359352064707    1.13221051824657    2.79901297918641
O           1.95943383093560    0.96203761727655    1.23169718058032
H           0.98054292158874    0.91999221093098    1.53345664404484
H           2.13532283037875    0.07722550677980    0.61879672755239
H           2.01453383793588    1.75347822435115    0.58111334443319
O          -1.51436717708510   -1.33180411938557    1.43248930519543
H          -2.11906476915240   -1.20331932109703    0.66327318410482
H          -0.78834920271099   -1.88652224817280    1.07666777718862
H          -0.92238006887871    0.01244430576785    1.70228716003716
O          -0.58930035397518    1.82882060790562   -0.79870397985619
H          -0.85712007437409    1.66703717328674    0.11659126517992
H           0.86386373081728    2.57806463026968   -0.72864338446311
H          -0.34552541317247    0.94787032568429   -1.14235356889836
N          -2.70888256662975   -0.90278814686402   -0.95884144141099
H          -1.75590914091466   -0.90712985666831   -1.32007230766514
H          -3.12744735525943   -0.01800618401712   -1.21792213892449
H          -3.22079002597204   -1.63739119584692   -1.43038452817654
