    26
        -50.44772980  Gyration_radius:  2.51299287771 Dipole_moment: 2.774
 S          -1.27555502205697   -1.20598209699658   -1.17641541513982
O          -0.97434303851885   -0.46612924455193   -2.37882410160304
O          -0.30701931388081   -2.29251823679897   -0.94810567681838
O          -1.44480106415686   -0.37936729332748   -0.00278449263685
O          -2.65700047222387   -1.93579575051132   -1.41951597410172
H          -2.47904950128126   -2.38277459671758   -2.24005561269939
O           1.26657772023074   -1.79043294814348    2.61074562965942
H           1.95522531101869   -1.63071929460441    3.25787345022016
O           1.99938419490345    0.82353889060938   -0.01923807693411
H           2.86134535283199    1.15525212953306   -0.27541496877797
O           0.37989315724570    1.71965059726684   -1.73700161614918
H           1.34310576546965    1.19097713917102   -0.72556909261592
H          -0.08500003747038    0.94057707126041   -2.10894538018980
H          -0.31499498607125    2.19010793894013   -1.21770486669126
O           1.81750487958580   -1.72150753384953    0.12302065581979
H           1.63985245449503   -1.87727874996146    1.12144454386792
H           0.89059169591680   -2.00301134322910   -0.37804780068405
H           1.91317334757445   -0.70656678064719    0.01440024317617
O           0.09321970329917    0.46327203989738    2.02655361694983
H           0.76885878828420    0.87745207370742    1.47190338680688
H          -0.58853320543395    0.15936287172056    1.39690553406066
H           0.72772135526169   -0.95249495440876    2.54706383697273
N          -1.66433234108035    2.50639460895809   -0.14595478910641
H          -2.49938561519447    2.92768059478926   -0.53233702575473
H          -1.52888736241223    2.88345021069718    0.78392798057791
H          -1.83755175621868    1.50686264720866   -0.04792398822404
