    26
        -50.45683226  Gyration_radius:  2.43355525456 Dipole_moment: 3.397
 S          -0.38650525936469   -1.35122222793463    1.19051367809847
O          -0.27437298115433   -1.29110884996701   -0.24986173509535
O          -0.40925647109008    0.07390148862310    1.76333714282855
O          -1.49602539686831   -2.06606414540254    1.70665896808576
O           0.93526128259106   -1.96079788625579    1.72860535253258
H           1.69015528216489   -1.54606688030448    1.23097542507899
O           2.84586744016579   -0.81060157118003    0.34783836037658
H           3.64998222672753   -1.33253703982404    0.33278663673233
O           0.47855316339995    1.82615269583875   -1.72143531290465
H           0.35534133237816    2.66946621612957   -2.15844011910526
O           1.41055949245386    1.50688340655656    0.76415382908704
H           0.31848142418624    0.68952751019738    1.37462641939649
H           2.14770504820132    0.88427111513881    0.68329355395350
H           1.10555293360130    1.70758643477743   -0.15011111595899
O          -1.79174525110342    0.57141622161391   -1.47486282502581
H          -0.43006805524781    1.41197945029225   -1.64790036868924
H          -1.35151133042819   -0.26055611814827   -1.23796472617871
H          -2.40727744643884    0.70787180104002   -0.72220468467060
O           1.69718288931081   -0.66321543410670   -1.96074852204372
H           2.49703636593087   -0.78583088387013   -0.59781341414893
H           0.90572674129164   -1.08944673435278   -1.58987418338776
H           1.42666133634947    0.25801003688375   -2.10784099234046
N          -3.15856845376050    0.29534438870922    0.86466568941763
H          -2.82597601779218    0.93895605234678    1.57289134933797
H          -2.76731064658473   -0.61280705904513    1.09970665373882
H          -4.16544965893125    0.22888799223615    0.95900494089372
