    26
        -50.45683218  Gyration_radius:  2.43362044365 Dipole_moment: 3.398
 S          -1.11836646197003   -1.07227947491197   -0.99637297971087
O          -0.35706127411284   -1.27602737731902    0.21597420644643
O          -0.67985393991877    0.24026220066198   -1.66314865217728
O          -1.06143895042976   -2.11157186338889   -1.95816319052335
O          -2.59039225426176   -0.81716502393628   -0.57638775368487
H          -2.58482675263895   -0.20237971561160    0.20549368960567
O           1.60232325896134    1.40375799180593    1.41047999338580
H           2.36541402389741    1.95867624581308    1.57501284636051
O          -2.45583797376816    0.79805647739136    1.48627173239914
H          -3.23921138816248    0.75342921604650    2.03726793794130
O          -0.55151227431899    2.13043711709214    0.00242490413539
H          -0.61219749972845    1.03443667687304   -1.01167356278774
H          -1.30748756888690    1.95235802854267    0.58068481720130
H           0.25966203663782    1.95196835561755    0.53088267498659
O           2.27788044713756   -0.72235861176372    0.06389241562379
H           1.93252791494426    0.62158762683926    0.87977111408697
H           1.42721341847877   -1.15421655085308    0.24269351819122
H           2.32798190197159   -0.74939071158945   -0.91623238381648
O          -0.35030681160369   -0.14236440422071    2.64986206716055
H          -1.69081214935546    0.44284745513607    2.03851100966514
H          -0.26776169797853   -0.81238392464123    1.94996932061312
H           0.38685453299611    0.46832263946355    2.48512163165107
N           1.71379116875577   -1.12545826057137   -2.57010058088062
H           0.85672182596809   -1.64721348481830   -2.40795607214140
H           2.27735197229181   -1.65735478276526   -3.22330113432663
H           1.43934447508308   -0.26597584490058   -3.03097757940619
