    26
        -50.45567462  Gyration_radius:  2.46068351247 Dipole_moment: 5.094
 S          -1.84551776037164   -0.52655081045029    0.32629682741916
O          -1.86454131434884    0.27116759613086   -0.99272767721191
O          -0.49674426547627   -0.54006576447769    0.83712601850302
O          -2.82102638173997   -0.00071851913884    1.23149769615085
O          -2.23708489008751   -1.94335123165696   -0.10326221591783
H          -1.48043392349623   -2.21805835596922   -0.77012338169869
O           0.81999493420434    2.45221939393369    0.91925295579763
H           0.79755320484748    3.41053788412000    0.90748285325815
O           2.14079996742832   -0.86190483827278   -1.18513685133211
H           3.03379299287054   -0.81984606971249   -1.53035430633488
O          -1.23059593864237    1.76379107650545    2.46870985397903
H          -1.90948675815229    1.21814956705366    2.02501103812298
H          -0.89438358527627    1.21474783044042    3.18063830924947
H           0.04852214763369    2.17056931413327    1.47139802464546
O           0.41592859509466    1.23029060228752   -1.45968003214641
H          -0.94075662036289    0.67845968269134   -1.21580027331983
H           0.59250789694415    1.71550803662419   -0.62495317261944
H           1.02798053199776    0.46687276085546   -1.45467445283770
O           2.07439204779670   -0.03938326283024    1.31182925239481
H           1.15755482511466   -0.36035935629149    1.36306612456066
H           2.20333834709614   -0.63826472703736   -0.21700138729511
H           1.97701139314035    0.92203024567682    1.27141731946644
N          -0.33864473337111   -2.37921835932065   -1.76182288584845
H          -0.60373732633195   -1.90028652112524   -2.61324330887995
H          -0.13398332173662   -3.34532199770232   -1.98169704989035
H           0.50755993522261   -1.94101418646644   -1.40324928821947
