    26
        -50.45567464  Gyration_radius:  2.4606565876 Dipole_moment: 5.092
 S           0.09703872765422   -1.70995195218098    0.92567714957486
O           1.44473880639940   -1.55231768522447    0.19390441299809
O          -0.73229173984730   -0.57180626009880    0.61406223266909
O          -0.48672192577970   -2.97772605255268    0.61028888824806
O           0.48310114702840   -1.66313734187311    2.40689259134167
H           0.91361685395759   -0.71744859636509    2.52087969373332
O           0.53200477849318    2.51004166090851    0.38508777819110
H           0.64594984507917    3.43220537721726    0.15055029789372
O          -0.87098635010476    0.00710794345649   -2.60201012575598
H          -0.76795553564773   -0.21538600776834   -3.52877656207599
O           1.41403566059522    0.51270491295845   -1.24607500509139
H           1.46668458856707   -0.71086180583542   -0.40645859985806
H           0.60870603866229    0.35615457053113   -1.78488992704989
H           1.18827696488095    1.25011953610859   -0.64384389500142
O          -1.78561889317432    1.61570042503254   -0.47785758957322
H          -1.63605804607270    1.32946991862891   -1.38952146136844
H          -1.63550253068902    0.80810886772588    0.04319560882642
H          -0.39711287565318    2.26657251943790    0.12302859027792
O          -1.91622686925491   -2.18289824403594   -1.51063504283508
H          -1.36870052843409   -2.58863124636308   -0.80987080630559
H          -2.73625320786400   -1.93696807179040   -1.07656047319005
H          -1.23656690998403   -0.80386129626499   -2.16839666389039
N           1.57201091092979    0.65152180726585    2.44566376580444
H           2.50100033675483    0.52292272967422    2.06485276077692
H           1.64903202728196    1.10779907718466    3.34536811337162
H           1.05379871622440    1.26056521422226    1.81544425829124
