    26
        -50.45567461  Gyration_radius:  2.46066629469 Dipole_moment: 5.092
 S          -1.19605392888115   -1.22574999367729   -0.92570985953994
O          -1.72927360125878   -1.12929809482387    0.51753483014104
O          -0.00309906306082   -0.42194340623442   -1.03073669449258
O          -1.02544284878053   -2.59767968269024   -1.29469559302765
O          -2.30867075432246   -0.59045205926299   -1.76456170028618
H          -2.36363055292567    0.38853381621265   -1.40236873331444
O           0.26231161021068    2.53153268668628    0.50469116253450
H           0.63318159152457    3.31336485303433    0.91652017918061
O           2.12984819169543   -1.06441722054227    1.36374550492410
H           2.50185502612464   -1.58518176276687    2.07746700059155
O           2.16644486394981    1.03269229711448   -0.51700852962151
H           1.47636102515416    0.50017191011512   -0.94879122800507
H           1.01819070609878    2.06664345920350    0.05339141449508
H           2.47325319702777    0.46609070106590    0.20428321994192
O           1.52258922411278   -2.85345424602192   -0.50985936667159
H           0.57464061188259   -2.88873350559876   -0.74571153839645
H           1.97255433687842   -2.60140652139793   -1.31938600665026
H           1.87217463207333   -1.71283304325121    0.66197181798705
O          -0.16582909772280    0.24853126573453    1.93014212979459
H          -1.11008405768359   -0.56728973501308    1.12559081202688
H           0.68549515248556   -0.21615809743324    1.77931474524916
H          -0.08219148816493    1.10725206384683    1.46856390361100
N          -2.33292248232618    1.72519760730621   -0.67728207566278
H          -2.74192878607143    2.47977177941799   -1.21292090283769
H          -1.37602057520298    1.97765796424232   -0.43809960672266
H          -2.85375292281692    1.61715693473521    0.18391514475467
