    26
        -50.45567462  Gyration_radius:  2.46066348976 Dipole_moment: 5.093
 S           0.76832667527381   -1.73983447379361   -0.41507803612473
O           0.08097794725527   -0.94911047823412    0.57618271399132
O           1.07549413250445   -0.84506623393778   -1.63228395879135
O           1.96845790649686   -2.36600917427919    0.04865447063500
O          -0.19145483809680   -2.79366497796877   -0.97500536892243
H          -1.01152420008785   -2.23360640081926   -1.30102066043133
O           1.61926778329874    1.87169788213074    1.18492889364753
H           2.36625125084924    2.47244182016908    1.17293727761930
O          -2.21744958250789    1.31862309461611   -0.27446562867898
H          -2.79816184525054    2.08048945500075   -0.24777376280922
O          -0.94435855271081    1.04542044382012    2.01045882981691
H          -0.63501429410951    0.17656435098533    1.70121078511918
H          -0.15769961938439    1.60409590103085    1.94368187948756
H          -1.84935028797203    1.21407291056312    0.64463303463736
O           2.67928744937585   -0.48518686913137    1.81824723848936
H           2.22972687207455   -0.81342167531751    2.60023138160911
H           2.55564048795779   -1.18061191553628    1.14254980790982
H           1.99317585194588    0.97975005586865    1.39475758686783
O           0.34667350013985    1.52110960669914   -1.17575808868167
H           0.81589019002493    1.70490502139762   -0.33345885657125
H           0.78637107817270    0.13566962032926   -1.47850568957006
H          -0.60160232336313    1.46360695949876   -0.94144606252611
N          -2.05096868455193   -1.23028433283322   -1.77718892625586
H          -1.73013632206269   -0.85376808046374   -2.66030252660559
H          -2.13034458259800   -0.46034675819393   -1.11571543011465
H          -2.96747599269008   -1.63753575162430   -1.91047092374158
