    26
        -50.44772979  Gyration_radius:  2.51297703744 Dipole_moment: 2.775
 S           0.66956507505396   -1.41711832827637   -1.41744143720186
O           2.02905275700056   -0.92949591714452   -1.12633044619092
O           0.30916794427180   -2.53033261066918   -0.57199364857118
O          -0.29844656161945   -0.34367515504876   -1.42276159717582
O           0.74259341890447   -1.96859165851604   -2.89753143414491
H           1.32931272965239   -2.70830021776601   -2.78206470847765
O           1.79072623997800    2.88978409815802   -0.25990603353237
H           1.86385101992667    3.68026040666193    0.27703947958198
O           0.15136663025671    0.44464411862301    2.11077270918622
H           0.27116873865525    0.39669055577147    3.06050666941586
O           2.31095869609590    0.60998089593614    0.75447945068632
H           2.22127721060747   -0.09348709703814   -0.07414069724004
H           2.23502329330038    1.53913744109344    0.32603878424592
H           1.46694997780173    0.49934932961627    1.32584967284287
O          -1.12280407324060   -1.64001528812060    1.47262220793459
H          -1.91677907243681   -1.31882119246946    0.98241141236509
H          -0.58512264416717   -2.09182696288668    0.78838221724246
H          -0.36744266994538   -0.41014644756496    1.85631661754012
O          -0.64633829320673    1.97427564491065   -0.11895587941510
H          -0.59069926987754    1.20649946541339   -0.71979503727998
H          -0.64101734137460    1.58927197739883    0.76840469513446
H           0.81853591119975    2.67332629575797   -0.32739259674484
N          -2.93704647604588   -0.61671800757007   -0.25674108701934
H          -3.33849120572909    0.30727442846243   -0.15555680059482
H          -3.62594436100266   -1.20612113542648   -0.70625698904873
H          -2.13941767500180   -0.53584461726217   -0.88595550412171
