    26
        -50.45567464  Gyration_radius:  2.46067645292 Dipole_moment: 5.092
 S          -1.68643876066201   -0.74325967736745    0.62712486209430
O          -0.28522043325347   -0.56296101590932    0.91752997253112
O          -1.97843516087400   -0.16174902016216   -0.77046554079701
O          -2.14114286219559   -2.09806802306047    0.69927245106684
O          -2.51438208295776    0.13958337543540    1.56534706348945
H          -2.11957867389512    1.09610103293720    1.41794513115819
O           1.62343523153108   -1.60116083169116   -1.52653131732148
H           1.81718079061087   -2.08890708349273   -2.32877430036758
O           1.34190345191503    2.22007785961937    0.04678237459235
H           2.04482401151195    2.82916309256625   -0.18409615792468
O           0.15387167587180    0.64824713099486   -1.83618472112091
H          -1.12211811424301    0.18241616071573   -1.23661679937033
H           0.53864336506548    1.28645986768512   -1.20209110532412
H           0.71407779318129   -0.15534863750637   -1.77451230371442
O           0.13636782869143   -3.27036252861875   -0.08351454244942
H           0.56361394492570   -3.38961711750808    0.76770602452837
H          -0.75931997885239   -2.93922393720856    0.12521664582049
H           1.04824421700412   -2.19436890791956   -0.98189554945207
O           2.33310946527793   -0.11027661989736    0.75600362436841
H           1.78477362873344    1.40158684357632    0.40053935658449
H           1.44329148987845   -0.36560956773149    1.05478041498054
H           2.44964835346462   -0.60915920621903   -0.06432941748975
N          -1.46082436163265    2.39957126877068    0.99294223339019
H          -1.57197854803574    3.14288247621581    1.67023434857489
H          -1.88706837199263    2.68679211408159    0.12093481818635
H          -0.46647789906718    2.25719092170079    0.82665245396752
