    26
        -50.45567457  Gyration_radius:  2.46067536972 Dipole_moment: 5.092
 S           1.01924101998440   -1.65631571158481   -0.08102408020958
O           0.23312083266246   -1.58344149777085   -1.40511934129380
O           0.67114100580649   -0.51199824986031    0.72503221971156
O           0.79881966122403   -2.92079462671349    0.55141941693590
O           2.48089431746822   -1.53763715945258   -0.52236420205026
H           2.52472383070634   -0.60152797285652   -0.98494501988816
O          -2.56531766647466   -0.11463729485673    0.96755050998452
H          -3.48036444048520   -0.39371582827858    0.90576388674023
O           0.21782502004828    2.50931742028526   -0.62206139852340
H          -0.07395661021971    3.41244794635365   -0.75476751306997
O          -1.32459591994511    0.39425954936728   -1.38122980076254
H          -0.75889935936925    1.17199602312402   -1.20092264061946
H          -0.41661398414246   -0.77950431032358   -1.42931438603825
H          -1.82364704605415    0.23290632413258   -0.55156320428743
O          -0.50777750571054    1.64233643928416    1.75246898716928
H          -1.40600730732839    1.29982490852221    1.64623096485050
H           0.05368084787783    0.86138882035317    1.60712092373991
H           0.00375723788217    2.28138295972129    0.32312123160427
O          -1.31036846379577   -2.20252929730301    2.03779403781285
H          -0.60786890200344   -2.58522650266535    1.47606386355229
H          -0.86110727190895   -1.90461195380813    2.83199169452630
H          -2.07203249844027   -0.88687130249830    1.34135454063045
N           2.34689857996632    0.73985330695944   -1.68047916763983
H           3.21520392502126    1.24459888906283   -1.80255450363639
H           1.69999717581044    1.32759061025162   -1.15824741961263
H           1.94325353142280    0.56090850055398   -2.59131958962479
