    26
        -50.45567362  Gyration_radius:  2.46071903597 Dipole_moment: 5.104
 S           0.59177102154982   -1.62529103690143   -0.89188904635542
O           0.36979682964993   -0.97367036297157    0.37568915289819
O           0.28607915944802   -0.62214096499999   -2.02167319125306
O           1.90433105745797   -2.16970586600695   -1.06064588603866
O          -0.46059892534248   -2.72040848235412   -1.08713940359854
H          -1.36808528630974   -2.21740074232409   -0.96006844480225
O           1.88427555960002    1.91936868146008    0.55735520096348
H           2.52198071905576    2.58339547998574    0.29008104147496
O          -2.17134284906861    1.13439557644472    0.84323837727008
H          -2.71793655183738    1.83764386735833    1.19688376158748
O           3.22292188595012   -0.37601423310511    0.42853528007166
H           3.16556280178164   -0.79949743294003    1.28793256689918
H           2.85211479016298   -1.02559382382357   -0.20079547147033
H           2.35493613200421    1.05110907159235    0.49256885300637
O          -0.01613253720340    0.80896007010624    2.31445059728283
H          -1.43365651733338    0.99668157452970    1.49765152422420
H           0.16764411838081   -0.00335965966796    1.81181649301103
H           0.63363208673601    1.43922293151188    1.97384604177463
O          -0.27352583719185    1.63152935302400   -1.04874799368682
H           0.05081113466953    0.31608496742498   -1.65644576281204
H          -1.01991162671571    1.47273706881997   -0.43631611951728
H           0.50749650818739    1.79283862961867   -0.47673850489924
N          -2.56259691232351   -1.28621602327310   -0.82235172708777
H          -2.70013229239498   -0.82813917976457   -1.71439229840262
H          -2.37392393223318   -0.56912063098017   -0.12449812449216
H          -3.41551052669041   -1.76740885276866   -0.56834692604899
