    26
        -50.45567464  Gyration_radius:  2.46067252373 Dipole_moment: 5.093
 S           0.38589034024376   -1.74298990849282   -0.77642656002837
O          -1.14698235809818   -1.68177411913735   -0.62449415740356
O           0.95008428242655   -0.52462433817712   -0.24959151067487
O           0.89037607551215   -2.94125162243605   -0.17880282755142
O           0.59685300627167   -1.78293455541897   -2.29271778710105
H           0.17795717737061   -0.88472649532537   -2.62485027746614
O          -0.51802385545931    2.43655845642819   -0.72532281365850
H          -0.77790732435829    3.35220638717636   -0.61383229815743
O          -0.19792102846937    0.17674159003181    2.73116729348077
H          -0.63307154922823   -0.02155320920614    3.56203744192170
O           1.33667741406585   -1.94695748396792    2.26782021350050
H           2.24110655479224   -1.64335445278456    2.16210367601384
H           0.36193069117027   -0.61260802995668    2.52417950314013
H           1.12994756999403   -2.42468101050337    1.44046390802995
O           1.34696825610322    1.78626202452317    1.01099886493929
H           1.46557035023943    0.95059372350864    0.52744306468641
H           0.25379449702331    2.28749348968349   -0.11435536477755
H           0.87928793941663    1.51983900027796    1.81456514701673
O          -1.81636554998817    0.42608453997056    0.57854037002166
H          -1.45673950712887   -0.82548326684584   -0.13473201934670
H          -1.27078746517406    0.36178391943366    1.39193428663159
H          -1.42898006260272    1.15939980872801    0.05928792537530
N          -0.55303780899735    0.42096593480395   -2.89745824723706
H          -0.30973150490541    0.83679515614452   -3.78710672949071
H          -0.36136252570659    1.09598696277517   -2.15970617042140
H          -1.54553362451614    0.22222750877544   -2.89114494144611
