    26
        -50.45567463  Gyration_radius:  2.46068587108 Dipole_moment: 5.093
 S          -0.91842995295588   -1.11472368642585    1.30530908675457
O          -1.06446294435264   -0.07221114613274    0.31934007099753
O           0.57659927172278   -1.47019997582314    1.42832752268996
O          -1.45446029824483   -0.79698382965260    2.59341181994896
O          -1.55331789325822   -2.40363129095667    0.77536824049121
H          -1.08051922052063   -2.55250354347613   -0.14491246462538
O           0.75158166990641   -0.04241914316200   -2.48293620576774
H           1.20389951944353    0.26102489155666   -3.27142198210599
O           0.99279458346748    2.41547800841229    0.84235806291156
H           1.59845828508701    2.94553375400644    1.36316015284438
O           1.95250973686805    0.04493386105204   -0.03791999105138
H           1.65763324460225    0.92823374261433    0.27228183301919
H           1.17133554565925   -0.86637655950915    0.83614412574191
H           1.58312735831632   -0.05438463151244   -0.93854102557571
O          -0.98972828509535    1.83980882191575    2.52108420695737
H          -1.81081591534594    2.14312758768579    2.12719930714539
H          -1.12169590517652    0.88464615631833    2.68146632687628
H           0.25595811567469    2.16714624005379    1.45452885758796
O          -0.63486425224757    1.91304400993853   -1.40140515314624
H           0.17050228145564    0.70943060460869   -2.18581563331526
H          -1.04426638335781    1.25767428856610   -0.81054220355442
H          -0.01951650103299    2.38645372278292   -0.82464243633647
N          -0.21921330678967   -2.62292634376224   -1.39651976826428
H           0.67671178157233   -3.01076287265094   -1.12914030352133
H          -0.06024933256660   -1.68966297770371   -1.77125388780204
H          -0.61957120282343   -3.19974971874902   -2.12492856890679
