    26
        -50.45567456  Gyration_radius:  2.46067115557 Dipole_moment: 5.092
 S          -0.01862233306157    1.01097281648429   -1.66333160748269
O           0.74325112683345    0.12405695148183   -0.81878302550879
O          -1.34351615395719    1.35086323019168   -0.95225235497123
O           0.66231916953122    2.21391364270167   -2.03310488378380
O          -0.46603233642572    0.25420207295393   -2.91728650750276
H          -0.96405996570506   -0.58236133120578   -2.53730138074098
O           0.97356073596683    1.23843921273266    2.24681931630829
H           0.92364625111960    1.90614675714537    2.93289533622076
O          -0.71778832883468   -2.30924104060401    0.93966939428038
H          -0.88491993232641   -2.97387987160048    1.60953167363853
O           2.12202351873252    2.48554005900430    0.19611098003153
H           1.37641107497896    1.68705608185027    1.46205646147339
H           2.90382067276153    1.98832194886215   -0.05469210522922
H           1.57470647399161    2.52487778456789   -0.61283836499246
O           1.68894421957317   -1.28927244146744    1.22938942608175
H           1.57300398343297   -0.84597592607404    0.37132469010895
H           1.59662329092051   -0.57129003999744    1.87079832856904
H           0.23568978334404   -2.04165613942896    1.04168239196341
O          -1.39416015363360    0.30112132191962    1.33550903365234
H          -1.39801205831885    0.93275486454420   -0.00816799017298
H          -1.24411898642959   -0.65469425150241    1.18941257994438
H          -0.55852369095106    0.64364209497741    1.71997744247148
N          -1.70988629407159   -1.67037360876685   -1.77931947242328
H          -1.85152937495406   -2.51096822952315   -2.32426659862139
H          -2.61303024930202   -1.29625194628514   -1.51672027736249
H          -1.20980044316608   -1.91594403297786   -0.92711249595868
