    26
        -50.45567454  Gyration_radius:  2.46064107777 Dipole_moment: 5.094
 S          -0.52123517801192   -1.72300764786245    0.73974679241403
O          -1.19861019168815   -0.66317105729132    1.63099498997904
O           0.26871312101849   -1.04742041280220   -0.26022797023690
O           0.20770701382603   -2.65123013537220    1.54876408221926
O          -1.69851939803574   -2.42939041631720    0.06132670959356
H          -2.16820991343380   -1.66650243586468   -0.47697259276706
O           2.22247929122548    1.22731641557690    1.04171024162223
H           2.69148480387605    1.66192286295526    1.75597115213044
O          -0.79893111856439    1.74649754910717   -1.74358879267129
H          -0.80722554994924    2.58165123573099   -2.21353155526843
O           1.63388540442737    0.75005484249120   -1.67166152927290
H           2.06066426118019    1.14890164947385   -0.90082151452713
H           1.25464051297720   -0.07471439655420   -1.32217341171511
H           0.12081209169048    1.37833997469689   -1.84199595856659
O           2.55901986994850   -1.36899424652664    1.51615054588363
H           2.95426506565835   -1.76503186848221    0.73622931419646
H           2.31258014271514    0.25635851526662    1.21073366870794
H           1.72956007004603   -1.86538526172035    1.66142855586822
O          -0.44854387684512    1.64370101294257    0.95733388050106
H          -0.65888313514373    1.71994410038507    0.00477798537660
H          -0.91278025232811    0.29820673339751    1.37964408371278
H           0.52716141693485    1.54804739237566    1.00527195427096
N          -2.73640305998172   -0.40477441453818   -1.10894674987113
H          -3.26355865919895    0.08354131162012   -0.39602900085822
H          -3.34617678466587   -0.59148496101631   -1.89439116043186
H          -1.98389595765963    0.20662363842823   -1.41974371027490
