    26
        -50.45567462  Gyration_radius:  2.46068803393 Dipole_moment: 5.093
 S          -0.02580345045970   -1.83920863778958    0.63758894376281
O           0.77476532327606   -0.79927958326695    0.03930108762409
O          -1.46783859636594   -1.31880282849850    0.79976218201416
O          -0.02907209513450   -3.07710417747057   -0.08015805373656
O           0.43909433239327   -2.06863742168132    2.07854680461543
H           0.38228816368228   -1.11879988461549    2.51133043725294
O           0.39059391410580    2.41028697982589    0.87732846284818
H           0.40609427398426    3.36791612553707    0.84465743259572
O          -0.63573267295216    0.45961805149021   -2.62949981170824
H          -1.25581347405804    0.46943600380205   -3.36053573285860
O          -1.67496378132170    0.98729115231366   -0.18877285709238
H          -1.33486489036922    0.83580883432565   -1.09694853626922
H          -1.58746982412421   -0.37080861007697    0.40478829341856
H          -0.99415255218396    1.52794372721178    0.26024128662064
O           0.23758663361469   -2.05215836980719   -2.54016299653714
H           1.19463805455769   -2.03768956811178   -2.61206475499464
H           0.05219444129785   -2.51705641119851   -1.70052803504394
H          -0.31446641538183   -0.47381472394632   -2.56005177665498
O           1.61504244561133    1.39284298265850   -1.21585612855147
H           0.94854894180685    1.34452495021906   -1.91508222918554
H           0.95354972041451    2.09439188758404    0.11940483434105
H           1.56124872810479    0.52100831232104   -0.78776945119930
N           0.14679438243528    0.31545797848910    2.95915242137468
H           0.66515921253181    0.56421942157243    3.79159941452168
H          -0.84229732837171    0.41763604910616    3.14835528010710
H           0.39487652291059    0.96497778001002    2.21537347273408
