    26
        -50.44772986  Gyration_radius:  2.51303016648 Dipole_moment: 2.777
 S           2.10139972800871   -0.09829748335520   -0.20072782510196
O           1.93645026853676    0.77110644026671   -1.37870330804714
O           2.31755736554204    0.66878564507895    1.00290634590931
O           1.03797212523622   -1.07170303378399   -0.09606394613780
O           3.43147768392232   -0.90812773676826   -0.47486408904730
H           4.07416117586559   -0.20748722882149   -0.44691266241543
O          -1.49993515132553   -0.09508204902324   -3.06073773359021
H          -2.39479737178109    0.05338370433804   -3.37010403296000
O          -1.57123470441315    1.43210528712224    0.39579573461502
H          -2.07936703347071    2.19468652265337    0.67675173010458
O          -1.57615497098969   -1.17103449187396   -0.68724542507058
H          -0.62405532981141   -1.29418425582183   -0.50839399315556
H          -1.82686681032378   -0.40505887593553   -0.15238262955498
H          -1.56585903978479   -0.66391223998169   -2.24302423676662
O           0.01704499540119    0.92751587134770    2.29286502150656
H          -0.92326070251736    1.23255664010005    1.17361405463357
H          -0.14409711368763   -0.01892501933023    2.52127383965278
H           0.91770818775393    0.93059055484724    1.90527051282300
O          -0.27390939148607    1.73910216416353   -1.78428813359700
H          -0.72701536673729    1.06449358399792   -2.41063976546391
H          -0.77182133535396    1.66461827384114   -0.89118194648186
H           0.72815879742874    1.34281953616694   -1.61681823555200
N          -0.19674471496016   -1.76768249490866    2.43117974382699
H           0.34567493950167   -1.75264984784213    1.56848433484537
H          -1.05732428392127   -2.26560125073223    2.23977014829871
H           0.32483805337711   -2.30201821573885    3.11417646670885
