    26
        -50.44772985  Gyration_radius:  2.51303204683 Dipole_moment: 2.776
 S           2.01968933827746    0.43738633058887   -0.44196802193964
O           1.95848349051142    1.71335885793137    0.23035898636258
O           2.36243175590774   -0.65268666064395    0.48806569769038
O           0.84562885879007    0.12767642862257   -1.22619651111635
O           3.23379784132780    0.50790938505986   -1.45243603838161
H           3.93137076293085    0.79155850582902   -0.87135542511202
O          -1.38664309645754    0.02729538635533    1.65911668158843
H          -1.83887111304702    0.20797537330472    2.48464956219245
O          -0.46190469172755   -3.36700029415293    0.27755659537360
H          -1.18250304220609   -3.91838044471720    0.58616744014215
O           0.55888302719346   -1.62084072040877    1.82859392536483
H          -0.19911390790387   -0.93095330277795    1.80405187294051
H           0.23059220955333   -2.41257405679019    1.26458805757484
H           1.38793579432397   -1.19365516510133    1.26341027291520
O          -0.56568067479288    2.26346539202119    0.82141846373817
H          -0.92811520597449    2.34693920893016   -0.09267464553273
H          -1.05191916537641    0.94378347966469    1.32345102662881
H           0.40114068319224    2.16885377948244    0.68823456300206
O          -1.43606931593882   -1.23403249629307   -0.86193991891486
H          -0.61715171270119   -0.78688406959289   -1.15015878790881
H          -0.86395458040456   -2.66184401387424   -0.30354492985071
H          -1.72581361467065   -0.73416285691323   -0.08616297356071
N          -1.20731332925990    2.08951426938781   -1.80288322872689
H          -2.02814529428004    1.60286592309480   -2.14137582580851
H          -0.42595895350021    1.43654826722245   -1.84552635346660
H          -1.01079607375201    2.84788352358597   -2.44344048501974
