    26
        -50.45567363  Gyration_radius:  2.46070882667 Dipole_moment: 5.104
 S          -0.81664514536770    1.75776356164209   -0.17517345871290
O          -1.83818004702842    0.76681008706940   -0.76735950824686
O           0.35447300613530    1.02229679759917    0.23497307903303
O          -0.56138469151733    2.81442230799913   -1.10573213117332
O          -1.52590049906700    2.30926788669651    1.06494912147906
H          -1.67636768714655    1.46374391428919    1.66081123019009
O           0.12767630671645   -1.98276285334979    1.66288220949462
H           0.34449299184669   -2.86564588778974    1.96606668957176
O           1.45599093972468   -0.95824140131876   -2.12287906534568
H           1.53030026258804   -1.27695973332231   -3.02395808540229
O           1.52893808400288    1.69150874822330   -2.34816687277846
H           2.24387449100882    2.01507734718955   -1.79554947971188
H           1.45583243941987    0.02956465377865   -2.18468050768770
H           0.72819947631093    2.14713364858767   -2.02145720496776
O           2.23129667666066   -0.83313093592231    0.58191386472855
H           0.98318938336298   -1.57166099997824    1.36209542314732
H           2.23867747442932   -1.11317646560491   -0.34380993179206
H           1.72969452730877    0.00016870595076    0.56500519642257
O          -0.85281577582516   -1.54867839053069   -0.84285143475190
H          -1.46539778227827   -0.19660085995321   -0.81227361543381
H          -0.01818602242277   -1.38620199941609   -1.33301575680316
H          -0.58362421022766   -1.74705170975337    0.07669661011723
N          -1.86637182945235    0.10833462639469    2.32419383701183
H          -2.00879248467610    0.17048930681594    3.32391142670792
H          -1.06061413777755   -0.48855009040341    2.14738054388339
H          -2.67835574672687   -0.32792026489351    1.90602782102707
