    26
        -50.45567464  Gyration_radius:  2.46067115071 Dipole_moment: 5.092
 S          -1.59115161578694   -1.11123912347984    0.15386226340908
O          -1.02457371732912    0.08006856976611   -0.42927074522415
O          -0.53872142447648   -1.75561917436149    1.07786547886050
O          -2.81127468880538   -0.90201069274643    0.87149945184181
O          -1.79952736295396   -2.16018676645742   -0.94229158019580
H          -0.85530376198445   -2.25053018074385   -1.38137041981092
O           2.16183173863594    0.20328462601398   -1.42033089035162
H           3.02713000961189    0.53512077923698   -1.66432254384155
O           0.33603131415319    2.02541415790596    1.82035795158470
H           0.49275441800880    2.34487375234044    2.71052939553626
O          -2.28561825100922    1.57910933311332    1.73264721773833
H          -0.63244175136303    1.82810067266915    1.77064709415117
H          -2.65022259503308    2.08877646177704    1.00556161887706
H          -2.53388665448536    0.65267760473236    1.54407647947640
O           1.52522109140323   -0.31733249586497    1.17800095878543
H           0.32448223539764   -1.18993995423178    1.14025584501285
H           1.81251528792139   -0.20445192046100    0.24947096558650
H           1.14167256843417    0.54659933862912    1.44241002551213
O           0.49673255829387    2.19222935208912   -0.98727864083025
H           1.56068791081946    0.99546599024197   -1.37266862643230
H          -0.22552774864818    1.54171551064571   -0.94980384159822
H           0.62252724315176    2.44620964597343   -0.06256690005993
N           0.60283456600808   -2.28623446436846   -1.81292131406050
H           1.10173823197040   -2.87128305481547   -1.15459771418976
H           1.00722308078053   -1.35258452107462   -1.77529340393594
H           0.73486729728321   -2.65823345652784   -2.74446812583742
