    26
        -50.45567462  Gyration_radius:  2.46068063221 Dipole_moment: 5.094
 S          -1.85791639092266   -0.56064424718051    0.15376460332795
O          -1.73400820497220    0.71798105951022    1.00610895313560
O          -0.56016534833732   -0.88069335630456   -0.38817987309708
O          -2.45747255382072   -1.60701775511110    0.92394562406253
O          -2.79269224136730   -0.14530649613289   -0.98582125267969
H          -2.27422214173037    0.62739737803769   -1.46235048586368
O           1.51684402916251    1.49303762281501   -1.48342415524852
H           2.31536674611148    1.95569117393566   -1.74166713114776
O           1.76958504840905   -0.87208790251693    1.90755499270535
H           2.10202471040075   -0.89292662954299    2.80647909821632
O           0.66830698728644    1.46492886194074    1.10647828267715
H          -0.75801627450775    1.05350020796751    1.06684851565103
H           1.10781233641339    0.64814453729177    1.42746483884548
H           0.95088160652474    1.56711256321824    0.17530356567843
O           2.05048088286545   -1.01318765586710   -0.89183944988798
H           1.76968836642610    0.53625008215196   -1.37450237650235
H           2.31118794129938   -1.01561909942336    0.03953943847949
H           1.09259026319978   -1.17992530647708   -0.86185838258104
O          -0.19509561038496   -2.66636161713210    1.88980000128239
H          -0.00516062764340   -3.30903625337707    1.20260843840769
H           1.01851674992084   -1.51599836746883    1.88218313422221
H          -1.07428397178586   -2.30389091785312    1.66366289298842
N          -1.39685209923147    1.77089700513165   -1.94709639389996
H          -1.56299795061850    2.56243241039485   -1.33844459126818
H          -1.59135839373712    2.04680183054959   -2.90084071250935
H          -0.41304384897015    1.51852087145053   -1.87571760500253
