    26
        -50.45567451  Gyration_radius:  2.46070652004 Dipole_moment: 5.093
 S          -1.37681078360446   -1.33589295528505    0.32996985835668
O          -1.04139803356609   -0.12259052090887   -0.37398998105001
O          -0.19212909269856   -1.72230718738184    1.23753597670944
O          -2.58147460837364   -1.26578749071412    1.09896287307802
O          -1.45834267647541   -2.49369824828348   -0.66914726897180
H          -0.53312969015355   -2.46809531906240   -1.15409852598438
O           2.03386474782214    0.42751665209971   -1.55238072138497
H           2.82077430392123    0.87236708883129   -1.87062503751437
O           0.07687632450205    2.19973284368933    1.63907963257398
H           0.21743853936612    2.61459623768053    2.49180020472405
O           1.60760663989573    0.03352295260388    1.11054200065976
H           1.09843538007922    0.84354449269771    1.32969328959576
H           0.56748950846114   -1.02144172618279    1.20764094894612
H           1.83124386674059    0.11204579401575    0.16121162629452
O          -2.43664260733601    1.33225013761912    1.73383077321362
H          -2.53640492807430    0.36518718305340    1.63217292349105
H          -0.84709167291155    1.84580561632492    1.65972173257462
H          -2.91035708803614    1.71208976809630    0.99042300606631
O           0.08405979026938    2.15230985864775   -1.17747778993231
H          -0.51846331403894    1.39949972440031   -1.04924611787772
H           0.20688188122856    2.50044841164274   -0.28352445299327
H           1.31296907455702    1.11373406669158   -1.53086229391359
N           0.89031763342742   -2.30468058417515   -1.66669536572857
H           1.50893024815837   -2.74641723138067   -0.99827090877670
H           1.13689218999803   -1.31835118092687   -1.72143472217113
H           1.03846436684798   -2.72538838378972   -2.57483164999222
