    26
        -50.45381443  Gyration_radius:  2.64791317833 Dipole_moment: 1.729
 S           0.08234034142957   -0.31918816100696    0.73193164970850
O           1.08720431649431   -0.12051967905044    1.85461803551103
O          -0.16380578817750   -1.82284456381791    0.71522273447583
O          -1.14811713928524    0.35691902538372    1.03426360444390
O           0.68684877694915    0.07943763256402   -0.52774209085091
O           1.81663952441956    2.50590770567448   -0.42995744878366
H           1.36876200202507    1.64991911711914   -0.57751583682901
H           2.69584298624208    2.42208436709105   -0.80370050367616
O          -1.17353954315681    2.64536556628446    2.42514844242112
H          -1.60320351289856    2.45101484006880    3.26016834154535
H          -1.30203373724040    1.85786485562371    1.86102583642363
O          -0.84504833921920   -3.03386123487930   -2.59976554890387
H          -1.34712829179263   -3.75914383496725   -2.22467895298895
H          -1.30604150772494   -2.20023792417171   -2.32304169355108
O           1.44951329828832    2.30782195947067    2.19947153557563
H           1.29010630576148    0.91706656754621    2.05985913644284
H           1.65698220369781    2.58419533669902    1.27766545030617
H           0.52785441943185    2.61636028957363    2.36958673748899
O           1.30993521041181   -2.52089390056005   -1.17675839180237
H           0.48396427984860   -2.23422431973405    0.01327734890748
H           0.60813812201822   -2.81512697494572   -1.81714559463832
H           1.48257286094052   -1.59306654081588   -1.38339246710864
N          -1.87786821791567   -0.74462594606635   -1.61575974985944
H          -2.19489522008814   -0.84652226212159   -0.65810954997557
H          -2.56305525684117   -0.18194559520102   -2.10626268833121
H          -1.02196811360983   -0.20175633577505   -1.55840833594116
