    26
        -50.46212477  Gyration_radius:  2.51201775588 Dipole_moment: 6.132
 S          -0.35302548577503   -1.23120641422487   -0.10764732184187
O          -0.47793385637078   -0.47220079261266    1.14107151173787
O           0.69656858940002   -0.60870648748725   -0.94350134985456
O           0.14385576027245   -2.65300748077488    0.24113495315832
O          -1.59472469219037   -1.34492177307774   -0.82142965132954
O          -0.43560039553486    0.67615366979663   -3.00713457545389
H          -0.06708318301405    0.05271648795246   -2.34654677945726
H          -0.78760968807261    0.12805153032950   -3.71009953931671
O          -1.25293373391434    2.00972184416065    0.75237550601304
H          -0.05447521826110    2.14019412821888   -0.08350022709203
H          -1.06268564587796    1.10899597271104    1.10007423838580
O           0.94058597469364   -0.94721580941447    3.29298601513421
H           0.30375054129021   -0.79857326691693    2.55597687854891
H           1.08580220477423   -0.08872375236651    3.69356473777690
O           2.39302970602593   -2.29286355316558    1.52647739127974
H           1.99305147228825   -1.78214792500109    2.26775314626033
H           2.62715341432882   -3.15047186523105    1.88801286072863
H           1.03500525506650   -2.50541498990384    0.64759494312250
O          -2.59992260920441    1.08368127927187   -1.29911764990539
H          -2.01305506033240    1.20255221569381   -2.06178955425799
H          -2.47405687700234    0.14310155841480   -1.06335817317206
H          -1.94426825789430    1.83867996512772    0.06215658883217
N           0.79979826400387    1.96064709521891   -0.76640588390059
H           0.54190311521548    2.21267922916573   -1.71996479254549
H           0.90489597366847    0.89117186518679   -0.76126295234948
H           1.65197444241256    2.42710725892962   -0.47742035049780
