    26
        -50.45567392  Gyration_radius:  2.46086341989 Dipole_moment: 5.100
 S           1.24422595528103   -1.26633250530238   -0.79720241454629
O           0.43768089532101   -0.95304729402109    0.35685946674135
O           1.12455314299186   -0.11043527608636   -1.81010653969246
O           2.62168690760803   -1.52605380935237   -0.50933930741456
O           0.62763655373941   -2.45802312477323   -1.53515349713631
H          -0.35891107127241   -2.15874812143731   -1.70834551286127
O           1.03837808374482    2.04880847962891    1.50575353244717
H           1.54718700886735    2.85555002009802    1.60217141101565
O          -2.53577545052478    0.53038476248292    0.06777062124483
H          -3.32561935590317    1.03414398774166    0.26966221674986
O          -1.03075491677595    0.27199411975197    2.20851268321565
H          -0.47612396742635    1.06378949084246    2.23873588284056
H          -2.06744892083750    0.38390444219731    0.93415213975616
H          -0.48956776322279   -0.36774449531732    1.71445955893980
O           2.85364561726469    0.10613414449288    1.60163895335229
H           2.60538954570489   -0.49670143167663    2.30603458730998
H           2.89745220199318   -0.44674801314013    0.79670183871777
H           1.69776595693424    1.31083667236139    1.51353893023345
O          -0.27246349674383    1.74675591671371   -0.84149296662127
H          -1.12485452658342    1.33226656366620   -0.59862309299039
H           0.19132626120955    1.91298091524905    0.00730127959532
H           0.55494557560773    0.67075693886016   -1.44394206671435
N          -1.71181821993164   -1.50001397723301   -1.92773905543371
H          -1.62971216928094   -0.88989313131194   -2.73112381318881
H          -1.96328017789017   -0.93014223250063   -1.12224965621372
H          -2.45554365986595   -2.16442302193189   -2.09797515934644
