    26
        -50.45567459  Gyration_radius:  2.46068322977 Dipole_moment: 5.094
 S           0.46041651685789    1.88319638803551    0.17797248009019
O           0.16007587323875    0.81385271564380   -0.74212269143080
O           0.48018148089256    1.31034298784241    1.60913528040130
O           1.68396173737827    2.57486614260965   -0.09034456168661
O          -0.70823296612802    2.87249989713624    0.20150578684607
H          -1.53564234713095    2.27334917326458    0.42374467678017
O          -2.07757282217370   -1.55265875054150   -0.01121119971822
H          -2.55811310160817   -2.38178172722299   -0.00876918999689
O           2.04966493990395   -1.80904029432505   -0.24141219377495
H           2.81101218390028   -2.27639335194022    0.10638959442943
O           0.12427148772833   -1.18153767772677    1.55182279712826
H          -0.71712867399462   -1.31572937829587    1.07076127059669
H           0.83090692110452   -1.46001996427060    0.93018315479968
H           0.33491708074772    0.28683164803260    1.62193682765080
O           3.03698825503406    0.50248384888421   -1.11411963747099
H           2.38886798607989   -0.93230048765278   -0.55066001043591
H           2.80607094213484    0.59401052988520   -2.04129339044485
H           2.66301616745573    1.29394060985308   -0.67910664828773
O          -0.22775008373132   -1.56117073696179   -1.88044273402048
H          -1.47004488993411   -1.58283955264765   -0.79939826550444
H          -0.09827889559506   -0.61121044957242   -1.71604613579400
H           0.55167737927133   -1.96991937585279   -1.47935428181050
N          -2.57679427905602    1.24346767308685    0.83302414953273
H          -3.52417636919144    1.52659359510770    0.61875206255232
H          -2.49568844938072    1.10690062797120    1.83268849709215
H          -2.39260607380962    0.35226592966311    0.37636435247410
