    26
        -50.45567393  Gyration_radius:  2.46071227678 Dipole_moment: 5.102
 S          -1.06937906848644   -0.55443671532257    1.52836886536772
O          -1.80303287291480    0.66147472325294    0.92885774616397
O           0.13453052912320   -0.78697874802301    0.76871776947442
O          -0.86128094664906   -0.35989084571886    2.93070030030719
O          -2.04331100126169   -1.71340744166276    1.29746136386799
H          -2.13620055660878   -1.75526483894741    0.25713457073930
O           0.21149192953093   -0.42950785143616   -2.54674292475105
H           0.52787239893571   -0.28964864308539   -3.44047479132167
O           1.90588001697942    1.93695760621434    0.39888634307516
H           2.17036694052437    2.83485822271333    0.60588678674638
O           1.55420415840198    0.78617315363114    2.77157084939518
H           1.74476976665772    1.49511262388388    1.26974189794582
H           0.64704744450840    0.45932219259331    2.93212945104574
H           2.11135375139913    0.00541573978199    2.80687377912383
O          -0.43500258150166    1.66717917141393   -0.93004153869936
H          -1.26789441357282    1.09945975338155    0.16010935630098
H           0.42414532462350    1.81317319033255   -0.47863645325500
H          -0.27908160740897    0.93718009040140   -1.56271430728178
O           2.22627352060584   -0.56109345291042   -0.86194695945952
H           1.59769108023415   -0.85379250936530   -0.17970074177047
H           1.01942866666067   -0.57116046168782   -1.98229158874986
H           2.42273758987667    0.35269198729017   -0.61329869291697
N          -2.19053828897775   -1.58878740346649   -1.25369316992609
H          -2.49583682754552   -2.42412677897467   -1.73593802602375
H          -1.27640022093625   -1.32144463142983   -1.61376803698464
H          -2.83983474221379   -0.83945815286430   -1.45719188840825
