    26
        -50.45567447  Gyration_radius:  2.46076552095 Dipole_moment: 5.095
 S          -1.11927675432072   -0.87706935384686   -1.32923841025753
O          -0.61894025111239    0.38424737438933   -0.84022711725780
O          -0.61365303152650   -2.00029944750987   -0.40238405397718
O          -2.54316566590718   -0.94663542272956   -1.45254902022139
O          -0.45958517665398   -1.19478734390633   -2.67437203696977
H           0.56331759031694   -1.13785066993747   -2.46846662803401
O           2.47102075729494    0.68762669004304    0.38835297579247
H           3.22772668785481    1.01158175639434    0.87912287999256
O          -1.17081704418865    0.77201436423614    2.35886893992863
H          -1.59594888449568    0.57633265430421    3.19552256699619
O           0.67589836693304   -1.01932974428669    1.52434979583054
H           1.38281741416948   -0.47784295405516    1.11869386519635
H           0.02454433951918   -0.37804736420739    1.88194605800429
H          -0.07688592504779   -1.63121303668449    0.40073057197447
O          -3.14781507164544    0.68946541433759    0.58012391396602
H          -1.88458446450011    0.72265107422982    1.67508510797468
H          -3.16671554851229    1.53019498643964    0.11735778777609
H          -3.03605167870144    0.01604020537418   -0.11949963337531
O           0.43197004658964    2.32894906994301    0.64325615358425
H          -0.02157123909773    2.06352092802770    1.45521797485266
H           1.77651583477456    1.39892163135052    0.44193517064350
H          -0.02524356032412    1.82269206519628   -0.05020749184491
N           1.98819376178298   -1.08599956067968   -1.93706018491280
H           2.08119480187505   -0.34829003639254   -1.24153809028280
H           2.67862062933770   -0.93603908371420   -2.66123723285373
H           2.17843403558199   -1.97083420636240   -1.48378386251513
