    26
        -50.45567395  Gyration_radius:  2.46080596849 Dipole_moment: 5.100
 S          -0.57332289025040    0.39461260109606   -1.81730458362056
O           0.49226396564754   -0.11011326478339   -0.98643475419250
O          -1.72467896987127    0.86793924195718   -0.90807313406650
O          -0.18771238745730    1.44579812122244   -2.70839151989857
O          -1.18973203146803   -0.76391695125832   -2.60645675367678
H          -1.44744191677558   -1.45739224203694   -1.86782368089771
O           1.29329044683386    1.97832434858645    1.39904348151369
H           1.31519196002978    2.83260729915432    1.83353857324102
O          -0.12325145994327   -1.89591973729475    1.76210630057307
H          -0.02374856390852   -2.30820395285937    2.62146873544058
O           2.10501729552602   -0.69578064670029    1.04857096237767
H           2.06534783719733    0.18844454585683    1.43847948876266
H           0.77665973786245   -1.55228752538898    1.51010763536909
H           1.72047086537189   -0.57302975878119    0.16353307456604
O          -1.06135518111422    0.65083142795312    1.51098538500505
H          -0.21737667146783    1.15156320881047    1.52415291512776
H          -1.48564676939242    0.79122847810122    0.09481218680832
H          -0.81208697375526   -0.28786060099743    1.62958559916855
O           1.71659811969186    2.53089880033244   -1.16881571884706
H           0.98859569096446    2.26619527672228   -1.76503405702724
H           1.42414357896110    2.16187407398235    0.43536435661653
H           2.47622370617363    2.02153646399917   -1.45993582715951
N          -1.81307530500594   -2.27965973280322   -0.64208479372813
H          -1.09645040669039   -2.18453762591916    0.07499052661949
H          -1.93842840365391   -3.26287824964157   -0.84481265547068
H          -2.67949523350318   -1.91027358930945   -0.27157172259793
