    26
        -50.45567414  Gyration_radius:  2.46058399884 Dipole_moment: 5.100
 S          -0.07534432507628   -0.41658933214800   -1.89988548534768
O           0.75483336838038   -0.37428068062579   -0.72107289044801
O          -1.46783448543584    0.13934965522117   -1.54172048385791
O           0.45652738241485    0.28280366199221   -3.02929814746632
O          -0.35358485042100   -1.87650761725937   -2.26887252982507
H          -0.75051609394394   -2.28245272013272   -1.39116115784830
O           0.68751051898582    2.55620676648460    0.72951269765925
H           0.51746642360770    3.49861147256140    0.77388837658111
O          -0.45038536944133   -1.10172907990464    2.30266230225534
H          -0.56047345171824   -1.14076598150557    3.25385176478446
O           1.78199893030679    0.14116997612006    1.68003305284916
H           0.45284195290353   -0.71537556536578    2.14059885371372
H           1.64908389658616   -0.14441912446714    0.75969918809813
H           1.56310657265519    1.08304589377207    1.65989269859299
O          -1.48776342186582    0.95182853712797    0.84128519544544
H          -0.72504975888089    1.56945743459418    0.83881945563382
H          -1.51159221971344    0.48138672345052   -0.56708922149741
H          -1.20458026500306    0.18637863066184    1.38100915096654
O           1.76351461277102    2.18937419092430   -1.67582574877149
H           1.25403940204613    1.59477848087610   -2.26096492584437
H           1.06623395558687    2.39199478811819   -0.17001252410582
H           2.61188227688844    1.75654632776798   -1.55682689284479
N          -1.37595877082391   -2.64417273035104   -0.05295350245092
H          -2.33589154961222   -2.32341014541664   -0.06602591818644
H          -0.89290593494493   -2.16514498245888    0.70465431782374
H          -1.36715881624834   -3.63808459002689    0.13580238409063
