    26
        -50.45567463  Gyration_radius:  2.46067692776 Dipole_moment: 5.093
 S          -0.74626814380091   -1.23139844548524   -1.31008620642537
O           0.40276210462396   -0.90996852790114   -0.49971657076473
O          -1.81152802930126   -0.13501028604536   -1.11093915131696
O          -0.46629292333327   -1.39566342574714   -2.70368567963030
O          -1.41782603909375   -2.49165366550787   -0.75694052576253
H          -1.59616402465615   -2.25742955870394    0.24604531286456
O           1.38591623312626    2.17974635234689   -0.92630497548992
H           1.43160742304967    3.01998749526409   -1.38557338128822
O           0.08220680478460    0.37386290442456    2.56602647395727
H           0.27063668622309    0.83843889683582    3.38275520304409
O           1.54908474106451    0.36128977723664   -2.86186286863009
H           0.77456000374264   -0.23127290917781   -2.92866694716403
H           1.41981062774214    1.48487414847418   -1.63011619744726
H           2.29004601921996   -0.21656659945937   -2.66589848120199
O           2.20970125114259    0.31831157676591    1.02115593136750
H           0.94741009350170    0.30027964875633    2.07898211540774
H           1.74126544249212   -0.31211317128868    0.44725160081166
H           2.19169390564882    1.14282490325880    0.51590565306137
O          -0.92115396057433    1.67722891372399    0.39289359041893
H          -1.47811124581313    0.62590404780401   -0.49540588480410
H          -0.64447815370186    1.22423628600969    1.21489246944677
H          -0.08902997317038    1.91596415265296   -0.06968009123973
N          -1.83506399356576   -1.68493104472644    1.63472524018860
H          -1.98097970040563   -2.39544953732719    2.34003178441542
H          -2.65963543203434   -1.09987285068444    1.58600379164694
H          -1.05016972690783   -1.10161907149608    1.91820782452767
