    26
        -50.45567452  Gyration_radius:  2.46069183993 Dipole_moment: 5.097
 S           1.51345732709911    0.53729294693567    1.09973693953933
O           0.36858958175249    1.50331516592246    1.46389671991227
O           1.05231472861350   -0.35395098142585    0.06373957890385
O           2.69280483396706    1.27690172131107    0.76877827153217
O           1.73729136218838   -0.25901020649846    2.38849572328859
H           0.82124897369284   -0.73710679966950    2.54690881253943
O          -0.34467960737508    1.25613984699924   -2.41550165174541
H          -0.54165708076810    2.02988633877785   -2.94610620712555
O          -2.04909075243126   -1.58852647466186    0.06541269819715
H          -2.87698960817623   -1.97072436922230   -0.22937672946109
O           2.24900937881757    1.47771234931808   -1.86487767298589
H           0.61285690230651    1.32914355722920   -2.17634931903664
H           2.45794035727547    1.53528539340631   -0.91170001055725
H           2.68706149498050    0.67971315524632   -2.16925165424736
O          -0.31080105018952   -1.51415419878600   -1.90670869987941
H          -0.48340268201254   -0.68878281375019   -2.38044637687736
H           0.37093163982007   -1.26752806072894   -1.25815462634468
H          -1.41039517846902   -1.68423587582405   -0.69226703187819
O          -1.61545002306078    1.10049215352514   -0.03283237994463
H          -1.20331857298199    1.18039928495783   -0.92003700648613
H          -1.83426894218212    0.15248255908348    0.07111243084424
H          -0.46453473517919    1.36340428547686    0.86785751023477
N          -0.60323514055217   -1.26285166971408    2.63156236419757
H          -1.17773102832870   -0.52936591693176    3.02720840225956
H          -0.68922192595179   -2.09026476084750    3.20741079786926
H          -0.95873028285636   -1.47566663011937    1.70148912724783
