    26
        -50.44772986  Gyration_radius:  2.51303134681 Dipole_moment: 2.777
 S           0.56843673828688   -1.94404963136477   -0.60287500507314
O           0.86987013737330   -1.50989093835345   -1.94620284488692
O           1.72592163180600   -1.78325741279746    0.29438688134298
O          -0.62945813551463   -1.35522316319955   -0.04817874671432
O           0.31769272422583   -3.50379617742591   -0.66919818266391
H           1.10811650878056   -3.79134111732668   -1.11335326711180
O           0.69233427729542    2.04604346117435   -0.10300420198408
H           1.12638259640628    2.86523578178265   -0.34628483965042
O           0.61888704032332    0.45108157363878    3.32271799295278
H           0.61594382540516    1.21265642333118    3.90454466541663
O           2.12173854410074    0.42808930416654    1.26416398088186
H           1.59102027465479    1.08117430044071    0.67857109807263
H           1.62574752668942    0.39572665401202    2.16175207226676
H           1.98609615733463   -0.56243727299767    0.82860973390545
O          -1.22605797834752    0.74842973926638    1.50482240170211
H          -0.81046206173710    1.41128243524777    0.93599637761798
H          -1.13701067784247   -0.08931010979499    1.01095597542305
H          -0.20379160932134    0.51183324779317    2.76050789698116
O          -0.00947368155240    0.96827533306442   -2.27602539489849
H          -0.97859695496446    0.80630955974470   -2.18407150290724
H           0.41023138964991    1.60984372467480   -0.99453265430797
H           0.38458167294568    0.07041489458688   -2.27716819282853
N          -2.51409035749010    0.15167015255122   -1.65234158527324
H          -2.03498825622314   -0.55535728306661   -1.09623202823911
H          -3.09410021573895   -0.32852839523272   -2.32839253117123
H          -3.12497109663188    0.66512491605319   -1.02916810886298
