    26
        -50.45567380  Gyration_radius:  2.46088085357 Dipole_moment: 5.102
 S           0.93838260160159    1.40561414337964   -0.96543020333891
O           0.11440087349459    0.22709676047204   -1.07833147478850
O           1.26364549100343    1.63845880580707    0.52326375931066
O           2.14672966565670    1.36425343742234   -1.73085204005558
O           0.11343174490948    2.63657885689557   -1.35156061172889
H          -0.72579743654369    2.57747010881669   -0.73105289551208
O           1.36917987838186   -2.31647616499957    0.54971449541061
H           2.06361399426930   -2.80458430977927    0.99534204244468
O          -2.28375699600186   -0.45654244024204    1.13716825741885
H          -2.92409280239834   -0.93207742985157    1.66842897420644
O          -1.17536968491869   -2.05781923155827   -0.62967698817917
H          -1.98108812259593   -1.08881332056719    0.43001810815828
H          -0.77397311814131   -1.27447695369083   -1.04387884789980
H          -0.43346451540263   -2.47999241085486   -0.17489465126069
O           2.55914781503483   -1.27842380563902   -1.59161158479233
H           2.54696768339763   -0.30167205160343   -1.62815819565391
H           1.79593227972721   -1.89929527900163   -0.23978968321027
H           2.07272729798345   -1.56391554198939   -2.36822902392730
O           0.31807985646338   -0.23250737124443    1.91775687704175
H          -0.63783755025330   -0.25581220543709    1.71039883614352
H           0.70389525135584   -1.01707548670478    1.47191019238940
H           0.88778643546286    0.88741224464004    1.12604458757093
N          -1.81172922711271    2.34932490719543    0.30865696159355
H          -1.99254618717266    1.35344307442734    0.41972546803207
H          -2.68243379379743    2.81236203959584    0.08282224290535
H          -1.47183141454018    2.70746964440284    1.19221538762896
