    26
        -50.44849474  Gyration_radius:  2.48585020645 Dipole_moment: 4.261
 S          -0.35350186583780   -1.84442470650005    0.59031615364422
O           0.31959338253138   -0.92639905403340    1.52817219924723
O          -1.52033573649428   -2.45024413289715    1.16346189068112
O          -0.54128866257289   -1.20772941914795   -0.69785794704524
O           0.68500187989805   -3.02285266337645    0.33718526834105
H           0.39018785602963   -3.69060511817395    0.94778305298995
O           0.05354742321593    2.25659481386675   -0.86373992063295
H          -0.10935343245377    3.17446287865826   -0.64287825511776
O           3.16805207672470   -0.01060452581093   -1.10339578799565
H           3.83104338712942    0.54095926563142   -1.52172883000811
O           1.62864810091223    0.95736160061508    0.67845393477154
H           0.99066749767628    1.49759122661032    0.08580844510971
H           1.05565146441885    0.11124463791482    1.06771675613704
H           2.33013937024483    0.55529204062016    0.04857832490603
O          -2.11504556609047    0.94915925649993   -0.59361460062998
H          -1.73593348612458    0.08153101867726   -0.82404701811560
H          -2.33728837444173    0.84591105031209    0.36471224395009
H          -0.84568918194111    1.77973503931269   -0.77814358704224
O           0.97426017889670    0.04751439305900   -2.50047615348370
H           2.41592481881625   -0.10403197412936   -1.75343232521933
H           0.41377228819089   -0.55668026378310   -1.97501564551413
H           0.61352822927398    0.92680153903341   -2.33311643975133
N          -2.35413211274247    0.18735407072990    1.96583702117442
H          -2.22738967756618   -0.79536068388065    1.72751827965374
H          -3.17816239347147    0.25709897336753    2.55126948500018
H          -1.55189744422263    0.44032073681885    2.53063346494783
