    26
        -50.44849465  Gyration_radius:  2.48592393768 Dipole_moment: 4.267
 S           0.01849579730601   -1.77900365250516   -0.84359933770974
O          -0.95173371066498   -2.45369818522999   -1.65620163898218
O           0.66441238517803   -0.65992917004622   -1.55492753693419
O          -0.43949565511696   -1.35407591071941    0.46393177898247
O           1.18129236814190   -2.82947074228765   -0.56852628188625
H           1.08053486411654   -3.44044848041472   -1.29103385662691
O           2.95184757371486    0.27171703578583    1.57206149729286
H           3.45786567583774    0.84700686035136    2.14809376551080
O          -0.41395486405358    2.10483890510713    1.11288592323915
H          -0.68475203111289    3.01338589498402    0.97496780880644
O           1.53832506193527    1.25247713541364   -0.30452089147546
H           1.16158044613200    0.39668786207994   -0.87117454083334
H           0.74975040325050    1.61565857528705    0.23997046775435
H           2.20125134483863    0.86852222162864    0.37646965677167
O          -2.29752233898580    0.56372748424695    0.36317885080642
H          -2.36780821453254    0.56208879564209   -0.62350402769022
H          -1.82451446247636   -0.26766267096372    0.54935852944787
H          -1.20865637005386    1.52615823262510    0.83545639455064
O           0.60538230334797   -0.15955286514056    2.60929652631933
H           0.22155959614510   -0.75759235764847    1.93819448487669
H           2.14165688480931   -0.01071905556625    2.08273020542988
H           0.13922801579212    0.67695049709907    2.48995878250893
N          -2.06344595325944    0.13073207017895   -2.27233108632228
H          -1.82120147800498   -0.84898346438786   -2.13087334149445
H          -1.23979141393569    0.56384463399366   -2.67304079889229
H          -2.80030625835151    0.16734037048996   -2.96682135344583
