    26
        -50.44849470  Gyration_radius:  2.48588458391 Dipole_moment: 4.261
 S          -0.57435593632366   -1.16530895563922   -1.47881302326122
O           0.85050852621683   -1.16864658197541   -1.09775827525064
O          -1.14030559087282   -2.48311620526395   -1.48395091446843
O          -1.30190867671310   -0.16918485129536   -0.71828666765746
O          -0.60519350655457   -0.65839128686795   -2.98658480558862
H          -0.64395797157410   -1.47360404139681   -3.47604715128318
O           1.16102752288404    2.78713452905063   -1.46282787777965
H           1.50523367250668    3.66115164716707   -1.27199579766295
O           0.37712549667683    1.29115827127235    2.00806975776442
H           0.80819401662464    1.28451909220454    2.86359986263971
O          -1.09277022881334    2.44225485958331   -0.21007915834866
H          -1.32394719472479    1.54003572578390   -0.50651812137351
H          -0.83370928376594    2.33965659505687    0.71384931137151
H           0.22500656197335    2.76167876156244   -1.11616280063435
O           1.84268753907722    0.79606051836342   -0.03012342629920
H           1.27664512852589    0.97736603879265    0.80465524716894
H           1.41133724991433   -0.08248959694915   -0.51770540828307
H           1.67210090353954    1.58192847572210   -0.66562347850681
O          -1.29079977206590   -0.63088522946434    1.91354790630716
H          -1.57706991637754   -0.46748757226727    0.99650903062173
H          -0.81576183289505   -1.49589918225765    1.84618218584095
H          -0.30547296838480    0.53154690478263    2.02782346565034
N          -0.00891657352004   -2.85451725189302    1.13856905985305
H          -0.50051667394462   -2.87560425026505    0.24612722988813
H          -0.08063045435248   -3.77763715379200    1.55007675067492
H           0.96544994294567   -2.69171925000397    0.91346711861280
