    26
        -50.44772978  Gyration_radius:  2.5129801861 Dipole_moment: 2.774
 S           0.04292730631721    1.78122201010914    1.13618481469704
O          -1.08682920772107    2.23071619273903    0.30410839948157
O          -0.40840994225652    1.10773185102982    2.33060857759161
O           1.01331458786215    1.03341966690204    0.36904805224547
O           0.76077705273439    3.11099539280416    1.60150851967455
H           0.08739829529247    3.49117526355854    2.15537289433194
O          -1.29068919162755   -1.68696697987561   -0.40516633142919
H          -1.96165862355117   -2.37011883503202   -0.36311118433126
O          -0.64905029142287    0.68626611532074   -3.27615728173043
H          -0.86741807057936    0.14987315941216   -4.03976319596207
O          -0.34211244034794   -1.51098021450359    1.92846814616804
H           0.63167789431446   -1.63062435128572    1.82224252754781
H          -0.44068214156117   -0.57253326027858    2.19496577568152
H          -0.90892507547507   -1.61835171530940    0.55092004830626
O          -2.11991585705626    0.59718508388052   -1.19627358793340
H          -1.69662474694134    1.34126362410789   -0.52045917958883
H          -1.61698902321621    0.72300676497005   -2.08163408574062
H          -1.82984978222605   -0.31993854398066   -0.84161000188071
O           0.97102771586671   -0.64244133030190   -1.72466238072675
H           0.35805667952836   -1.27771002029767   -1.32923515784306
H           0.10136047150594    0.22756631410773   -2.80388092705780
H           1.13241410099556    0.01397387458976   -1.01992470754098
N           2.30608236182152   -1.35074560971947    1.38929319689298
H           2.08053045412497   -0.40815604664845    1.07412018229903
H           2.74351834502803   -1.83327902251830    0.61404633733074
H           2.99006913818579   -1.27254938355700    2.13099055008467
