    26
        -50.44849470  Gyration_radius:  2.48588202782 Dipole_moment: 4.262
 S          -0.88594110343995    1.57152982654199    0.78753236643414
O          -1.20190081522968    1.21615556294151   -0.60865097495123
O          -2.06230386345419    1.69032884343747    1.59933165337416
O           0.15574874229076    0.70930588745751    1.30855536082205
O          -0.24197853191573    3.02463373977027    0.71615302349969
H          -0.98402667735502    3.58742385415710    0.91181792725313
O           0.99693694772502   -2.11344090417205   -0.61741658568782
H           0.82560589422931   -2.95736002746184   -1.03722778738907
O           2.63471534625849    1.21496437492050   -1.68458739153750
H           3.40317554748523    0.94904993502119   -2.19208580904704
O          -0.54705850148160   -1.86727544955432    1.39270726520588
H          -1.47743269280616   -1.71150318838529    1.09507957577144
H           0.38586852596379   -2.07340454083010    0.20010510241447
H          -0.24492751499069   -0.97439037184213    1.63986085887154
O           0.42242110431591   -0.01392746467984   -1.96246590769494
H           0.63010504701710   -0.87126234723736   -1.44094784932187
H          -0.30533986176652    0.54643606837129   -1.36918840370080
H           1.28314586679907    0.54242923070848   -1.94951233864299
O           2.61666454691997   -0.03723481777085    0.59567481555608
H           1.80878049561679    0.33835879480664    0.99762788495845
H           2.37849231399203   -0.94309770312381    0.36335000506444
H           2.75867393377203    0.85675047723608   -0.76085837159748
N          -2.89341854322361   -0.86679316266087    0.56686425316956
H          -2.73390408131404    0.01543812016799    1.05142020333410
H          -3.81986046593416   -1.19136071187852    0.81784368911145
H          -2.90224166947775   -0.64175403594251   -0.42098257526506
