    26
        -50.44849478  Gyration_radius:  2.48583907764 Dipole_moment: 4.259
 S           1.11179986525716   -1.59407658858222   -0.31390320112923
O           1.60147521893153   -2.18517354262896   -1.52547267878471
O           1.78740269319928   -0.32166198025210    0.00213503683415
O          -0.32650029323296   -1.44248927783520   -0.22229694687958
O           1.51270705790086   -2.58682685431105    0.86296647649580
H           2.24109395247131   -3.06894609268490    0.48536730352891
O          -1.56904543771321    1.83730020160397    0.05642595075118
H          -1.72425802516082    2.73295345963583   -0.24609228918268
O          -0.33732105297254    0.20756958368266    3.33096661505922
H          -0.77308300755445    0.70747536094659    4.02306907629362
O           0.62545229580468    1.39816494467545    1.29689216256913
H           0.33920843193144    0.94969466085154    2.17290326062010
H           1.15735010879473    0.63078253512471    0.72765867804922
H          -0.23902769166818    1.59915257700445    0.78469932994040
O          -2.09414095980789   -0.57386192003177    1.57851226862060
H          -2.32555911199235    0.23364015282274    1.10344673326659
H          -1.52029222854109   -1.07040333755250    0.96251638919470
H          -1.05595895104852   -0.22004718510719    2.78537983996474
O          -1.31916967205801    0.31696287589263   -1.97118224090335
H          -0.45516447351648    0.48516177185201   -2.42244377643436
H          -1.14504227972032   -0.49616167966703   -1.46311661459403
H          -1.51254044892157    1.25929633328950   -0.78386361674376
N           1.23369210724779    0.37709554423923   -2.78838452184797
H           1.38766454126178   -0.59114488506748   -2.51020490980730
H           1.82880397939986    0.93515148023603   -2.18756458345770
H           1.57045338170809    0.48039187186423   -3.73841373143389
