    26
        -50.44849477  Gyration_radius:  2.4857956634 Dipole_moment: 4.260
 S          -0.24091316629960   -0.57888249559110   -1.86597372210555
O           0.59071242692444   -1.41183742825248   -0.97719023412989
O          -1.28523568000265   -1.33123734255159   -2.49873470257405
O          -0.65804019107561    0.63076905100229   -1.18564692210898
O           0.73454280230493   -0.10060319004229   -3.02828011857506
H           0.55497103703063   -0.73017425699625   -3.71896569526521
O           2.91590686966053    1.65715739815953    0.04751511228517
H           3.49275366963139    2.16853393649626    0.61717700166269
O          -0.10328616704533    0.77889467293929    2.28558976147104
H          -0.22345703703358    0.50003943322307    3.19421469162588
O           1.72437592543553   -0.40662789475371    0.94337834025668
H           0.98981530357853    0.04151264985541    1.49986729278585
H           1.23119806750242   -0.86290995162584    0.08064420392897
H           2.30030214403636    0.35345292060041    0.56778074376419
O          -2.18733881787946    0.16763396854535    0.95587235479686
H          -2.23268159374787   -0.81080918904021    0.81793779346930
H          -0.97228683505224    0.54909548568765    1.80042143904893
H          -1.85598337749897    0.49325900623749    0.09925801148867
O           0.50599424480128    2.63259248543822    0.14104759474292
H           0.04974667932226    2.03626855346438   -0.48466774835609
H           0.18168554895121    2.37143690380373    1.01163558246949
H           2.05868897496524    2.16365249709097   -0.02761528650399
N          -1.95984313988790   -2.36430977710839    0.10389029737433
H          -2.66466703755313   -3.09089820122302    0.14765653792745
H          -1.06888489691797   -2.78376724745717    0.34224116522882
H          -1.87807576414523   -2.07224199790360   -0.86905346470880
