    26
        -50.45381430  Gyration_radius:  2.64804990291 Dipole_moment: 1.729
 S          -0.71646795603174    0.05618914726372    0.35639345232105
O          -1.09818289590348    1.50837971045919    0.61627556658296
O          -1.39311673543949   -0.71122368430936    1.48021232061556
O          -1.24384495550139   -0.34958615996529   -0.91633590612060
O           0.72414743919518   -0.08785546419499    0.47744825968206
O           1.49013135239254    3.78022150523538   -0.41271109870710
H           1.26510427339548    3.04356476754060   -1.03795478183479
H           0.82936048519044    4.46157583291146   -0.54705358051068
O          -2.06009615067684   -2.86387979568863   -1.34748066332576
H          -3.00966360469363   -2.82275196322139   -1.47508891807414
H          -1.74382518574367   -1.93929224147186   -1.34513361610442
O           1.50557208034098   -2.63675675678039    0.73622309827298
H           2.11707282964149   -2.67069285142637    1.47420948276451
H           1.31851901949491   -1.69155867034729    0.57296407825425
O          -1.08241535040370   -3.14242204466687    1.10490750478421
H          -1.29826940267663   -1.77881240574601    1.37828720812761
H          -1.47020019442602   -3.24718227712176    0.20378018824658
H          -0.10647481010204   -3.17520832114445    0.98024017165882
O           0.97138027037090    2.34798522175926    1.73500232743041
H           1.27686901683998    2.98429206287712    1.03433009018756
H          -0.33055761504370    1.93496729721785    1.17311175975775
H           1.41459692934501    1.51149490219084    1.54220019799935
N           0.73945768513722    1.63339803913103   -1.86262711355652
H           1.09115915167989    1.43251739492684   -2.79145920656955
H          -0.26781187499781    1.51964474828167   -1.88582569868673
H           1.07755618861397    0.90299200623691   -1.24391513323673
