    26
        -50.46489364  Gyration_radius:  2.55384407539 Dipole_moment: 4.633
 S           0.72392953456192    0.24523382959483    0.31283048647000
O           0.31423248344926   -1.13858205702689    0.07207744571166
O          -0.46091874435019    1.13314711227787    0.29153372709163
O           1.36704302393010    0.34605663792021    1.69612936924475
O           1.68490623094749    0.69635912557792   -0.67344020221447
O          -1.42460306253188   -2.13586799391202    1.78521992165273
H          -1.16854261198130   -3.04977332783885    1.92048825128122
H          -0.83584049659502   -1.78947327401772    1.07898801737468
O           2.34238858427452   -0.71000837146728   -2.80561548538134
H           3.07977134508940   -1.28756121524885   -2.60412517782090
H           2.20184788553874   -0.16370911253456   -1.99894955524109
O          -1.63966662533711    1.98784791260449    2.53274652042773
H          -1.30593137763585    1.70714562763739    1.65639929909009
H          -1.15252266983183    2.78071313890561    2.76330872231940
O          -0.23801526576847   -1.30709469578260   -2.49424580682085
H           0.68177459501069   -1.31324802378514   -2.83501727466771
H          -0.12747944380053   -1.42649064966193   -1.52250375369458
H          -0.49813366202192    0.16066263528971   -2.48733109810957
O          -0.41176637243798   -0.24750622817458    3.37904149728113
H          -0.89164783810571   -0.98678783192037    2.94329423900868
H           0.67702053193809    0.07940744031577    2.42266341057267
H          -0.99432451307571    0.53549699674666    3.28322126711169
N          -0.50433771506366    1.24017548186873   -2.27001122396745
H           0.41946307037290    1.60630963066259   -2.49544511226270
H          -0.59759027090326    1.29486177278615   -1.19613789774359
H          -1.24105661567533    1.74268543917988   -2.75511958671194
