    26
        -50.44849469  Gyration_radius:  2.48587628485 Dipole_moment: 4.262
 S          -0.79209593143217   -1.52645665523470    0.95757191138503
O          -2.08029866862900   -1.70213569038669    1.56306747231946
O          -0.86253057384329   -1.51131509586443   -0.51561684763213
O          -0.01559717241606   -0.40256086193581    1.44121452435238
O           0.05611584784677   -2.82146993353480    1.32468380487508
H          -0.62089308006182   -3.46342202652194    1.51236679856277
O           0.78626296832166    2.10198302021719   -0.89740106643414
H           0.58468586378317    2.80265332062092   -1.51886945048750
O           3.07207963275031   -1.00846820161459   -0.89490680246559
H           3.88178094401458   -0.70803550114279   -1.31074391278529
O          -1.08570167035906    1.96672297924398    0.82383490894984
H           0.03257050466414    2.10798619128112   -0.20801948611731
H          -1.90260249537212    1.58726101593454    0.41502991699816
H          -0.71493009052651    1.20975949673465    1.31285870582093
O           0.81029106610406   -0.28676731865555   -1.81423628622655
H           0.06484691502090   -0.84691928360949   -1.24306239388981
H           0.78014484228762    0.67834155496240   -1.47106211668667
H           1.72112653465607   -0.66130215587966   -1.53027337059447
O           2.40489248291464    0.63462404217719    1.00853392824070
H           2.09110465574303    1.41871028352014    0.54159275887617
H           1.59464239311650    0.20075401714958    1.34103728943270
H           2.95040917680413   -0.46221221009319   -0.06801026328792
N          -3.04261254713509    0.40964624447568   -0.14281934161770
H          -2.81575391854307    0.00083054629592   -1.04168763945484
H          -4.03783792404708    0.59949938356663   -0.13234953824935
H          -2.86009976566207   -0.31770714169978    0.54726649611769
