    26
        -50.44849479  Gyration_radius:  2.48581788308 Dipole_moment: 4.259
 S           0.76237681941099   -1.78255113380980   -0.34211590844390
O          -0.47377235941158   -1.40299995642351   -1.05148464003452
O           1.79425594971564   -2.21654866594775   -1.23876641903369
O           1.14139277210801   -0.75337649983403    0.60511018725587
O           0.37071749067759   -3.04932454145776    0.53717916290112
H           0.65629905157769   -3.77435566513651   -0.00904913569498
O          -2.36464377007483   -0.47618562668599    2.33092937284332
H          -2.99309207010677   -0.01062524905976    2.88508806638174
O          -0.55489303353591    2.32085728995786    0.38245702109761
H          -0.81768158068860    3.13550334012794   -0.04776989291282
O          -1.98940188629535    0.25292866643517   -0.07933515393638
H          -1.32415674385015   -0.49690363714142   -0.51637374074367
H          -2.23716810832392   -0.09978457162367    0.85054146983782
H          -1.42430701383313    1.09340227235492    0.07668553058723
O           0.00028707830212    0.56753577942269    2.62382268514094
H           0.52129581690699   -0.00566507105145    2.02776306041542
H          -0.05887330068002    1.41344260558243    2.16312436754860
H          -1.45437024672024   -0.16931946577108    2.60335095354328
O           1.70119343447210    1.59168657666761   -0.54672580969005
H           1.60000595515033    1.25809756600943   -1.47242032026452
H           0.36647340580080    2.08654581278389    0.00887315917823
H           1.76155154380239    0.77102227959112   -0.02472184511541
N           1.29660274573072    0.16492817975835   -2.78035669582053
H           1.78441678503443    0.25810807838677   -3.66352401030431
H           0.31501807256595    0.01791057408998   -2.98393704074825
H           1.62047319226519   -0.69432895721520   -2.33834445398662
