    26
        -50.44849476  Gyration_radius:  2.48583683644 Dipole_moment: 4.260
 S           0.48963485353628   -0.08000906980445    1.90518504946375
O          -0.29929632975454   -0.32309174828775    3.07800454167363
O           0.66535210516096   -1.29392219574761    1.08608463648838
O           0.06648151929618    1.03343490631858    1.07977086441497
O           1.94828638285724    0.29717419664877    2.41637717766431
H           1.96707932886860   -0.08904109017431    3.28592903052719
O          -0.93548425086804    0.28735546991437   -2.20979897539168
H          -1.49368918868323   -0.11976398140549   -2.87347148334984
O           2.86591978623209    0.61780866433174   -1.63028441562626
H           3.22384576801155    0.79573368750131   -2.50150145211394
O           1.01915092945571   -1.10823866351047   -1.32736952192592
H           0.22043435827042   -0.57705307355874   -1.68804367306159
H           1.83950273935648   -0.50596517838715   -1.44904283776633
H           0.87341084980232   -1.20104531131629   -0.24767566053445
O          -2.30319985817439    0.64258962901159   -0.09129355034751
H          -2.47686480120967   -0.22295602178729    0.35491040337999
H          -1.57339661014657    1.01660776875588    0.43512227993104
H          -1.53109536545782    0.44457043401992   -1.39498757782618
O           0.90503238511702    2.25546789103368   -1.13948190101922
H           0.65999643966681    1.97251929333517   -0.23658824721955
H           2.24762057894400    1.37056373661852   -1.41111760901459
H           0.18795866459858    1.93655756205950   -1.70108997377970
N          -2.23356316074580   -1.60367566209938    1.37085364966916
H          -3.01515096780852   -2.06727089472987    1.81899773299773
H          -1.67885884507068   -1.15912160524342    2.10111316596750
H          -1.63910727125475   -2.31922874349545    0.96939835679903
