    26
        -50.44849473  Gyration_radius:  2.48587102517 Dipole_moment: 4.262
 S           1.05543294294817   -1.13780393644717    1.21118179854184
O           2.27211082575028   -0.88778970767615    1.92823641937920
O          -0.08799639746551   -0.39249439889485    1.77020138933759
O           1.12271048625559   -0.96314889470212   -0.22583081988981
O           0.70823681407962   -2.67362439854796    1.43918994509709
H           1.17926383046455   -2.87330472413239    2.24162975061353
O          -2.62477246910201   -1.87538123984328   -0.92125408759207
H          -3.39587791102185   -1.87938308028178   -1.49061339636209
O          -0.93661390859786    1.52342276863379   -1.62574708212292
H          -1.23859575827837    2.42255675450705   -1.76051904331395
O           1.52268642539720    1.57281896067699   -0.96656298683781
H           1.62472691316678    1.91565260783596   -0.04434108331124
H           1.61305680201214    0.60931532651235   -0.85210913969927
H           0.05764808621123    1.58820991211994   -1.40082091582377
O          -0.51392646832896   -1.26157288661652   -2.31247381035836
H           0.17494559326875   -1.31267317140006   -1.62097972228279
H          -1.82504174889916   -1.81485711195643   -1.51600216753000
H          -0.61641770266469   -0.31846165381737   -2.48944590080633
O          -1.96484191556377    0.23903558870511    0.33390827972958
H          -1.55933523828951    0.78140779699486   -0.43521202427095
H          -2.30975044391347   -0.63150171638615   -0.08289472977893
H          -1.13617852269847   -0.04914052962113    0.98655399801737
N           1.70179232551787    1.92493264272755    1.68528469939034
H           2.06751900659615    0.98422284586135    1.82631813662858
H           0.79864073828307    1.94187456977610    2.14419251732476
H           2.31057768487097    2.56768766597169    2.17810998592084
