    26
        -50.44849465  Gyration_radius:  2.48593525973 Dipole_moment: 4.266
 S          -0.42459214867004   -1.08326762200690   -1.58832987868543
O          -1.41961954472259   -2.09191313412480   -1.81065212388105
O          -1.00882229098066    0.26712824261901   -1.48517214924535
O           0.48756228047098   -1.32824951649169   -0.48926198291140
O           0.48092922019399   -1.05085202005009   -2.89608816254698
H          -0.09603728565849   -1.42445527723432   -3.55409602412203
O           2.54560910676729    1.98017192112402   -0.92629475123151
H           3.16035935295280    2.63604339223016   -0.59352854698208
O           0.44776296036957    0.98947338448375    2.15883345593772
H           0.04903905224904    1.45716873224072    2.89374092394525
O           2.61402133203235   -0.13162299670969    0.59139493560508
H           1.96701881578366   -0.70196933341216    0.13157281770482
H           2.73055919662887    1.13211511964256   -0.43278093360444
H           2.16703241714888    0.14647163405222    1.40017367520824
O          -0.69854960819772   -1.27024097818198    1.90448265322978
H          -0.18969945121061   -1.55125546945884    1.12236168440947
H          -0.01410334847709    0.07936635814576    2.11691235691646
H          -1.61213112306314   -1.15337049951069    1.54367798175587
O           0.11482411419607    1.99663885024209   -0.16960886639101
H          -0.38860313645819    1.23387658839324   -0.76979085233835
H           0.22072963644752    1.60772828712934    0.77260824682080
H           1.06221169501779    2.07560295243064   -0.55282746382758
N          -2.89117701835000   -0.96260949378366    0.39254256026512
H          -2.48788212473605   -1.50031464531862   -0.37346532611905
H          -2.99957759528827   -0.01878342513319    0.04036361409084
H          -3.81686448444125   -1.33288106132126    0.57323212599750
