    26
        -50.45381447  Gyration_radius:  2.64745050577 Dipole_moment: 1.736
 S          -0.55775467560361   -0.48013788042695    0.33301761702114
O          -1.96427920875354   -0.88299232840190   -0.07781442026781
O          -0.66016736150190   -0.25501580297697    1.83667185372121
O           0.36555610446294   -1.55030919168303    0.07808756818597
O          -0.21025461243339    0.77323176639055   -0.31462730528700
O           0.04541006109507   -3.17796433702819   -2.02342397653717
H          -0.13593728976312   -4.04993534303222   -1.66794601462597
H           0.31147902652836   -2.62270953851091   -1.26447986379803
O           1.57971884303559    2.32183369220675    2.96339477353326
H           1.60556075802719    1.91217671596624    3.82965839424625
H           1.94596878842007    1.65526554163809    2.32646297861220
O          -0.69016173190748    0.78455896089734   -2.95015179052669
H          -0.41517174562588    0.84502709971002   -2.01433993832717
H          -1.18465875068517    1.58361388233794   -3.14169761873758
O          -1.96442534159563   -1.50460886976141   -2.47800415408202
H          -1.27252314709246   -2.20785737107660   -2.49330916363013
H          -2.03588484102429   -1.16934030712476   -1.11343892252582
H          -1.53970646329879   -0.70485281001393   -2.86423973813909
O          -0.84017647204959    2.23474982002115    1.92911179858224
H          -0.66455003910614    2.28093430914674    0.98019853310963
H          -0.83676752121840    0.75884110052871    1.98592287657785
H           0.02599583711085    2.43493578854554    2.37498557859089
N           2.27090628162559    0.43845489011645    1.16036925638280
H           1.68075124359711    0.73721049098907    0.39022472964690
H           1.93043471010658   -0.48149868392105    1.41711209724046
H           3.21063753766266    0.32638841551188    0.79825485097666
