    26
        -50.44849480  Gyration_radius:  2.48582499153 Dipole_moment: 4.259
 S           0.39222540923450   -1.54967192092689   -1.14934845032368
O           0.78235702202833   -1.61667500625559    0.27144435767013
O          -0.41736088850158   -2.66523733192783   -1.54573863399130
O          -0.13835486450898   -0.23968625270251   -1.46955838225081
O           1.75270437715347   -1.67073690939618   -1.96523220804845
H           1.77857917697600   -2.59625101097130   -2.18493974041642
O           2.83364871200888    1.79338138494623    0.07338554048306
H           3.20961431187455    2.61105673668706    0.40327888308914
O          -0.84569957714110    1.89856758699217    1.23311545205472
H          -1.30396839912167    2.16117982316980    2.03237961281713
O           1.23565153532870    0.43796249038995    1.51936993004863
H           1.96805757885288    0.93100732290543    0.99881747243288
H           0.39065590213939    1.01125095218583    1.43316283943927
H           1.04650804486637   -0.48653661136782    0.96689586414338
O          -2.36260255787676    0.36171359859735   -0.11670038458269
H          -1.72234499767307    0.19609934170585   -0.83242792379332
H          -2.43606487149268   -0.52124947817817    0.32305791296113
H          -1.50085019384096    1.31699620945505    0.70782591519678
O           0.63751380702903    2.30213332634712   -1.22512882036469
H           0.38655557949739    1.40071830991920   -1.50752562173265
H           0.00418346210097    2.52912714617325   -0.53327265603332
H           2.10424261628112    2.04422392500558   -0.56067296002240
N          -2.05509935575733   -2.15086349666078    0.76699457062978
H          -1.34452136648436   -2.23424008348012    1.48441210082438
H          -1.60928016436043   -2.44441190995879   -0.10115411208543
H          -2.78635029861233   -2.81985815265737    0.97755942185157
