    26
        -50.44849469  Gyration_radius:  2.48586355659 Dipole_moment: 4.260
 S          -0.13278725962334    1.74927146700291   -0.89225642252962
O          -1.14965793799511    2.31172326685608   -1.73278719070185
O          -0.56196029116526    1.64761589168410    0.51525451254996
O           0.43539636242013    0.49454628925621   -1.34258336164924
O           1.07243673350860    2.78788793341029   -0.89033709516986
H           0.64209870202941    3.60165861926336   -1.13167889610888
O          -0.00056044044935   -2.29534943624984    0.75689295726754
H          -0.51407056126929   -2.95779076398487    1.22086902294461
O           2.91285181956959    0.06949527534797    1.66303540928311
H           3.49687602766391   -0.46845694571106    2.19998979499979
O          -1.30343437473712   -1.53382149137545   -1.29452961175665
H          -2.07560601032808   -0.97740453647289   -1.02515017222211
H          -0.64959180083862   -0.87265071785834   -1.58596319684838
H          -0.54091218982370   -2.04702130422611   -0.07352126440972
O           0.38930849578822   -0.07524460306319    1.96808641035399
H          -0.03289092263665    0.70603994099989    1.32970955010230
H           0.20602866114672   -0.96851416795685    1.50066565325775
H           1.40518947950054    0.05744514020545    1.93979372387642
O           2.34418119213199   -1.18980831715997   -0.54126341401703
H           2.86495767807034   -0.36250658572669    0.76413080736869
H           1.74242304307012   -1.89062944279117   -0.26194458647507
H           1.77242408135068   -0.52933343988125   -0.97959506158944
N          -2.98971702960972    0.42245888003522   -0.57473405791914
H          -2.47062032923129    1.12074807747276   -1.10528487013190
H          -2.89490153014609    0.68816814740795    0.39838886402668
H          -3.96746160838938    0.51147279351026   -0.82518748450242
