    26
        -50.44849476  Gyration_radius:  2.4857998026 Dipole_moment: 4.260
 S          -1.17399133986985    0.43907417628259    1.51792899338178
O          -1.40520311396568   -0.82766349415777    0.79864134854985
O          -1.01330677411699    0.24301077109013    2.92956998551271
O          -0.13574512834730    1.21179088468789    0.86600158184745
O          -2.51235823102015    1.27885869160620    1.33142225601387
H          -2.98358254253091    1.09551169295367    2.13758809581007
O           1.74293866580863   -0.42173805979187   -1.62026221009877
H           2.34856835198271   -1.08615631158557   -1.95125522898309
O          -1.66924508607142    0.99803622304338   -2.73308589365846
H          -1.59190698634490    1.08214455017659   -3.68479588495642
O          -0.73618422550012   -1.05059246648530   -1.54378937592162
H           0.26424691346594   -0.83051306339785   -1.57207244057528
H          -1.04951028864515   -0.95677622619950   -0.50031327403607
H          -1.20834210093571   -0.29321897744206   -2.04767904524505
O           0.37187219079329    2.13278455585780   -1.58667913008774
H           0.15073673073076    1.98540345245758   -0.64609080265741
H           1.10474361161600    1.53080036251167   -1.76505233366973
H          -0.97420357226436    1.59204051125169   -2.33177173364530
O           2.23960898214174   -0.01169993915553    0.84356053897676
H           2.00089708332492   -0.26273429532390   -0.64481025258616
H           1.52663549754003    0.63834453392501    0.98040436145074
H           1.94297592849779   -0.78306366246759    1.38710079234192
N           0.90253724311534   -1.81600289080396    2.30825169841129
H           1.26157882741240   -2.36578936181252    3.07992604182328
H           0.30953207559911   -2.41838901930730    1.74964114902609
H           0.28670731758108   -1.10346262791442    2.69762073297305
