    26
        -50.44849466  Gyration_radius:  2.48590883365 Dipole_moment: 4.266
 S          -1.27399663556356   -0.97804551657821    1.13880490855967
O          -0.62951376833218    0.23023065890057    1.68672209556887
O          -2.70423492386933   -0.92088205743047    1.22818223113935
O          -0.73570847462087   -1.29301585286305   -0.16924047665435
O          -0.81264785649480   -2.16807220237231    2.08868782520265
H          -1.54542239606367   -2.24540674950607    2.69080924154243
O           3.03439966853690   -1.11972294624534    0.89257006940545
H           3.96543550603836   -1.05338127290249    0.67440535312078
O           1.28524775181927    1.15424958843778   -1.69007074543743
H           1.46215370315686    2.01297419780051   -2.07620584227262
O          -1.18559220935577    0.61379815077746   -1.98644766254847
H          -1.73469558945793    1.17582417501783   -1.38551554310471
H           0.29702977214515    0.96269836263922   -1.86362498780827
H          -1.15621888740372   -0.24077476226752   -1.51906694253892
O           1.67229075789883   -1.68521221762779   -1.25046895475457
H           2.57640861152995   -1.50901919166892    0.09528983686535
H           0.76965201380316   -1.73621730432859   -0.87899897706598
H           1.68402677167454   -0.86495393312056   -1.75871347695688
O           1.55236248554499    0.94979698505809    0.84644421488371
H           0.58260483456640    0.62952486323949    1.23692009732611
H           2.18378466521541    0.15256816431862    0.97444279766931
H           1.43952727768770    1.06345013198890   -0.16574172363521
N          -2.55843407186563    1.70044975829169    0.04396015386226
H          -1.96231745882099    2.14894319551269    0.72958279911345
H          -2.78825540039503    0.78625242639189    0.43122185472991
H          -3.41788611737823    2.23394332853583   -0.01394813621232
