    26
        -50.44849478  Gyration_radius:  2.48581832492 Dipole_moment: 4.258
 S           0.09879971275413   -0.53953548587975   -1.89073810570832
O           0.87960826071252   -1.30743993514562   -0.90278497911386
O          -0.75262884685566   -1.37816854815820   -2.68368455472240
O          -0.54422283718713    0.59537307055929   -1.25938174158218
O           1.17362755520871    0.07847951125613   -2.88779073786790
H           1.16591086403522   -0.54291045913114   -3.60850640571043
O           2.67625098639424    1.95749584412543    0.50745991499086
H           3.10347847243015    2.50851420378195    1.16523741725439
O          -0.52020449024622    0.68718967944409    2.25790496808599
H          -0.73977824226494    0.36711327706939    3.13377155671391
O           1.60319457857211   -0.25069100721450    1.18149202374534
H           2.13979447299991    0.57873838091981    0.90840089904891
H           0.75038738964596    0.09758858915638    1.63045577245322
H           1.29450617454579   -0.72833074335248    0.24752364408625
O          -2.30808519501127   -0.09891047558283    0.62374281638215
H          -1.89366364106163    0.28829292467109   -0.16869884387565
H          -2.22435301190350   -1.07153756257906    0.46433902901666
H          -1.27855058511431    0.38205952390505    1.64538929048217
O           0.18522938636740    2.66531666308827    0.25882967498985
H           1.78831901754859    2.37139634474763    0.31446819661449
H          -0.10611598999494    2.04444016357991   -0.43756518389265
H          -0.23138490424173    2.34251641687043    1.06724161654682
N          -1.67969595583678   -2.56250224271541   -0.22735675524688
H          -1.49073834315614   -2.23155375828771   -1.17250045787421
H          -2.29808986829622   -3.36182214023720   -0.30024694470233
H          -0.79159498004117   -2.89111223488848    0.13299787988138
