    26
        -50.45381447  Gyration_radius:  2.64790730832 Dipole_moment: 1.729
 S          -0.69592634065909    0.30970229133606   -0.25612870081645
O          -1.09886042283596    0.22338934857506    1.11970182545000
O          -0.54637083039050    1.77599849241744   -0.64279489083532
O           0.53896546255090   -0.39263318487499   -0.56027762762732
O          -1.80052974281539   -0.20216731663659   -1.16575639635409
O          -2.69441799316235   -1.74660411451784    1.98241717851274
H          -3.51981060493433   -1.33345706205356    2.24274297205036
H          -2.06446943661314   -1.01839699843627    1.81559121413560
O           2.84160975265357    2.91927504930900   -0.28309372126778
H           2.47387386154089    2.36855542526928    0.45560728381229
H           2.51715563711530    3.81056805286502   -0.14447082240339
O           0.24980214929392   -3.05534382377168   -0.61146675237915
H           0.46275333007152   -2.10418981262584   -0.54113014643062
H           0.65718622091526   -3.36713309283742   -1.42175045955202
O          -2.35986561510957   -2.53299060221785   -0.53103890078986
H          -2.58589670315918   -2.42266896074055    0.42295875215368
H          -2.09559265770008   -1.21305719861850   -0.94237449165223
H          -1.46218451972099   -2.93667256157968   -0.54702721865627
O           1.45189223203650    1.66948978190148   -2.13784233223343
H           1.57660478148763    0.74039097649570   -1.90423189359680
H           0.21274046709228    1.83321555420028   -1.35118055202171
H           2.09267052712767    2.17938410584244   -1.57350077627677
N           1.61693429294971    1.32788584817206    1.51758340895674
H           2.02900324464132    1.06454645387623    2.40510280735327
H           1.54095506315546    0.48635521164371    0.95480528264232
H           0.66177787446347    1.61655815704531    1.69755494782908
