    26
        -50.44849470  Gyration_radius:  2.48588790792 Dipole_moment: 4.261
 S           0.12664381491817   -1.51378508709036   -1.25172835479729
O          -0.74503816944757   -2.62874448807259   -1.48400899237094
O          -0.44291031126594   -0.24504698063882   -1.74307270194781
O           0.60933153366575   -1.36247309299342    0.10625272366842
O           1.42226305705958   -1.76508399646458   -2.14028982693454
H           1.09910304130263   -2.35831996081373   -2.81056919544813
O           2.73207379461718    1.86036974338583   -0.57477659885193
H           3.20594333135749    2.63420339500673   -0.26585060161739
O          -0.29912912890215    1.58584560023872    1.79935414228126
H          -0.91748412209506    2.20208288156799    2.19391931135592
O           2.25682130830502    0.26895359283973    1.42762439900911
H           1.56497301102934    0.72049390315729    1.92636907962960
H           1.79763086711384   -0.46133163993467    0.96813092546558
H           2.72858060892048    1.20296191641746    0.17671980337766
O          -1.31797990939985   -0.74749325601222    1.85184294653213
H          -0.57723057058767   -1.18828647245029    1.39730429330264
H          -0.73031858871792    0.66297429144488    1.87484564290887
H          -2.05373911293235   -0.81684667357515    1.19437269545243
O           0.18903716995788    1.87353098982382   -0.69590625543886
H          -0.09043996641002    0.93284732733923   -1.17832114077962
H          -0.03550246874306    1.77260980968182    0.29882685295087
H           1.21107550303500    1.92546550491546   -0.75293748045677
N          -2.86461517741776   -1.06813299990512   -0.31464932628062
H          -2.23089971583702   -1.75869243347857   -0.71477195689571
H          -2.83786626284167   -0.27263494976247   -0.94156551373812
H          -3.80032354668714   -1.45546691462547   -0.34711487037432
