    26
        -50.44849480  Gyration_radius:  2.48587932679 Dipole_moment: 4.258
 S          -0.15762029316994   -0.72111315785212   -1.82514660130136
O          -0.25563964689716   -1.66006843323789   -0.69191533694042
O          -1.28012986367579   -0.81852478901919   -2.71255579030303
O           0.16087945009886    0.61204214839807   -1.35471307648868
O           1.11324276262308   -1.19610295582198   -2.65614915531729
H           0.72269935983776   -1.72739383541332   -3.34227436307080
O           3.21001004327780   -0.45445550705457    0.86217123295055
H           3.84428676429518   -0.27715856975225    1.55862659292829
O          -0.05845566295775    1.17498657462578    2.11099190894479
H          -0.51509996986936    1.23594970338549    2.95096763752753
O           0.82409920969050   -1.13078729234625    1.43838570281360
H           0.44782870799226   -0.22206944615100    1.72588875112978
H           0.34797742346845   -1.38167743695298    0.48640668752306
H           1.81404944312815   -0.97384242698512    1.22436766960732
O          -1.71691850435158    1.65024557826953    0.23775699847318
H          -1.08469825543883    1.51058648349084   -0.49052014761978
H          -2.34454077549352    0.89276555840197    0.13421820642584
H          -0.74837947157578    1.40814851083064    1.39480918858204
O           2.02215317468570    1.75659843634491    0.17774093668389
H           1.43331670919243    1.94482560712328    0.91878016181902
H           2.91189634438576    0.43055810306114    0.50884948533539
H           1.43458109140859    1.42920490037991   -0.53137311188184
N          -2.98132095180848   -0.62746545627612   -0.39631125926175
H          -2.53214612142443   -0.66962897967587   -1.31012107378672
H          -3.97628060635376   -0.75689478385771   -0.53749169552934
H          -2.63579034106540   -1.42872854391353    0.11861045076062
