    26
        -50.44849460  Gyration_radius:  2.48590031532 Dipole_moment: 4.267
 S          -0.60425174299094   -1.84161351743342   -0.34394693329060
O          -1.52898718027496   -2.37364952807618   -1.30240740279087
O           0.65219448799803   -1.38815143014692   -0.96941501650433
O          -1.12966862550214   -0.82097092531666    0.54043353039158
O          -0.19038527790308   -3.05342323637537    0.60026553763533
H          -0.37542815409832   -3.81070369023380    0.05461762090669
O           0.35528818468167    2.36457412121145    0.35301040135488
H           0.59130766654232    3.18553715634962   -0.08070307843482
O           2.20691033237765   -0.24250247616216    2.51554627098584
H           2.75525740117925    0.28168639033006    3.10150435258811
O           1.96647501124418    0.39805292182481    0.06332022294672
H           2.16683996128606    0.08756152023054    1.01939122339536
H           1.39226300904048   -0.40913942027102   -0.39950203562658
H           1.33206979720576    1.19802510027628    0.15122641974977
O          -1.76365175464267    1.44759928468888   -0.72135779484646
H          -0.51501914611364    2.05337093538305   -0.08184618715070
H          -1.56783343574178    1.09924755674231   -1.62623699560270
H          -1.80577864984206    0.63804851303486   -0.18056243567859
O          -0.24273859860273    0.62946061949192    2.59732501620950
H          -0.67415928939021    0.00505386978976    1.98142471412183
H           1.25846537032237    0.00221266873800    2.70925700596011
H          -0.20964183693433    1.46615117716427    2.11758470112789
N          -1.08829357356634   -0.00074255644251   -2.87411450176539
H          -1.51311821859402    0.03433506210118   -3.79329559454348
H          -1.38205102557881   -0.87040480685842   -2.43145483341946
H          -0.08606469210277   -0.07961533004306   -3.00006419771942
