    26
        -50.44849473  Gyration_radius:  2.48575462363 Dipole_moment: 4.260
 S           0.99042439443583   -1.66445610018215   -0.34985924974885
O           0.60781832719121   -3.04099695159298   -0.22437442351053
O           0.32182247855771   -0.99787537749294   -1.48308102227966
O           0.87179221658238   -0.86430639801324    0.85249854493052
O           2.53912524045325   -1.66092183400879   -0.71422565823612
H           2.66382818019777   -2.52666073687334   -1.08921227783024
O           2.13137917281597    2.47711747250691   -0.75504621292120
H           2.22628145725171    3.43087317750505   -0.74390003690042
O          -1.36705008549194    1.84726433838671    0.74841951331512
H          -2.23038857253946    2.25457835693035    0.66758791803437
O           1.39766900771766    1.64394814811183    1.59780208721755
H           1.36036596904745    0.68023421339597    1.43942495381583
H           2.02728504887917    2.18468251732231    0.19395794499437
H           0.47505244315633    1.91864826971504    1.66579039168747
O          -1.65489702627298   -0.51724540504504    1.64943875514610
H          -1.52636573888737    0.91987036634812    1.14569794579157
H          -2.04430658068831   -1.10495295629056    0.95564506513262
H          -0.70836586543049   -0.74751268643732    1.62376565118380
O          -0.08354232104432    1.41368056264264   -1.42245277879904
H           0.83043090657629    1.85213564360067   -1.27154031104224
H           0.10397941448006    0.33689140183392   -1.46409557138257
H          -0.62559825412273    1.58574205720657   -0.57009096230683
N          -2.13349949868932   -2.17493837183255   -0.40283456741883
H          -1.23402827548877   -2.64040504724608   -0.28937896264845
H          -2.09331480580666   -1.71198104353972   -1.30318723658881
H          -2.84589724288844   -2.89341360694264   -0.45674948962949
