    26
        -50.44772992  Gyration_radius:  2.51301110286 Dipole_moment: 2.773
 S           0.97141645530152    0.48399802204409   -1.81320072820606
O           0.03650480762778    1.54416296269976   -2.10626627126340
O           2.09002792415541    0.95876166864219   -0.98013068476997
O           0.36006947492371   -0.70649500374219   -1.26703834355555
O           1.63488394535526    0.06377460386556   -3.18552077609678
H           1.93282623366832    0.90902747274330   -3.50415312978971
O           2.22880356522597   -1.26092450874872    2.25167170857522
H           2.18967929654244   -1.46183066330748    3.18797295155363
O          -0.79620413008751    0.95312877852347    1.76998322545131
H          -1.15977981669328    1.57456289305172    2.40263412779333
O           1.73305919403677    1.10260214928813    1.43624007923777
H           2.05845600262857    0.19535476494017    1.78784133667449
H           1.91487889059657    1.07271857464191    0.36124755410253
H           0.71562321933873    1.09878631532278    1.56185624027248
O          -0.10212350887008   -1.71377387629030    1.17541649631252
H           1.38801371328124   -1.61196276134608    1.84372541669063
H          -0.60050210819687   -0.95212856050909    1.50278788276654
H           0.08136898375101   -1.50314894152711    0.23968060084535
O          -1.99243703217804    1.40892263640161   -0.40664665879591
H          -1.29403978511600    1.58642167817997   -1.07158900915261
H          -2.37150220336611    0.54005893729078   -0.68099520665932
H          -1.28705125056532    1.14583614812972    0.88310684908126
N          -2.50845712551029   -1.11473002225989   -1.23992565070644
H          -2.71649270460949   -1.87586580852934   -0.60549006581259
H          -1.50877842507301   -1.14513971399126   -1.43575345579022
H          -2.99824362606151   -1.29211774381687   -2.10745450814309
