    26
        -50.44849478  Gyration_radius:  2.48583661532 Dipole_moment: 4.259
 S          -0.26812905292684   -1.60620948860043    1.10630379863126
O           0.36198308859838   -2.89429414207476    1.07646618095633
O           0.63290309916310   -0.55276336105045    1.61002038447921
O          -0.90279200839670   -1.18560705880182   -0.12673380172648
O          -1.43993712680682   -1.70527895756910    2.17791306038861
H          -1.15928828584319   -2.43389863162894    2.72190248540150
O          -2.13804794309766    2.28260933087544    1.21264034656338
H          -2.47045812587217    3.16947228717102    1.06508235637889
O           0.36832591270664    1.71144078442221   -1.66614532972862
H           1.04100000854426    2.23607057003342   -2.10212203901995
O           0.82919249002044   -0.75257324295379   -2.11477793441133
H           0.56956056949391    0.73823873186733   -1.90227437532782
H           1.62153764969416   -1.05250523608555   -1.60422722447874
H           0.08617887323793   -1.08982792898964   -1.58203705503057
O           0.33432953313654    1.76658569298567    0.89182157283001
H          -0.63088806930483    2.01590859620758    1.12984312262800
H           0.46844866015720    0.73465261985536    1.22786722150232
H           0.37993850677110    1.75169122282025   -0.13178244720622
O          -2.33015359498640    0.90041689706607   -0.98298222943499
H          -1.63821054461637    1.26369003874496   -1.54915256270249
H          -1.97949811373971    0.03953667219180   -0.68094031579028
H          -2.39177637301993    1.74079209538478    0.41325157610425
N           2.57359077331726   -1.65304249184342   -0.28864612362085
H           1.87088143517211   -2.24807641688742    0.14806768914905
H           2.81540634901645   -0.95586405187101    0.40564327889133
H           3.39590226958107   -2.22116452127040   -0.45500163542746
