    26
        -50.46212465  Gyration_radius:  2.51190360794 Dipole_moment: 6.150
 S          -1.10523853228800    0.49796080870143    0.43464421659432
O          -1.06398841699970    0.67247294075757    1.86001953912765
O          -0.96648607151187   -0.90349975364035    0.02511406339146
O          -2.46545796852204    1.01813955085664   -0.08408710419897
O          -0.06025506040630    1.29891666524954   -0.23944560299077
O           1.32566584348173   -1.96081675630057    0.75956700216898
H           1.94536727445387   -0.89154930339145   -0.03179380050131
H           0.39414896298767   -1.78088742925809    0.49835283885431
O          -2.12350851673495   -1.93838241752472   -2.08635016032370
H          -1.75923091813301   -1.63376533791426   -1.22299513770987
H          -1.50188200802105   -2.58674340727888   -2.42080036507299
O           1.83041213381223    2.00879879877246    1.52280479085445
H           1.59649272704976    2.69961283184923    2.14451098787712
H           1.03596425772638    1.87717462273082    0.96366135551171
O          -2.40011031989837    0.63511079003681   -2.67060060266242
H          -2.30627363537030   -0.34396082885323   -2.61511386268069
H          -3.29313650036380    0.80116951846746   -2.98045205152037
H          -2.39187866344376    0.94833171408336   -1.06934436136778
O           1.19587286897744   -0.36487398959481    2.83748425737734
H           1.69833017564975    0.42447969116259    2.58299473898009
H           0.26747438061629   -0.10042063464767    2.68192130792043
H           1.37851678442048   -1.57304974263989    1.67078294335518
N           2.17932735411868    0.06104472971057   -0.54722777935757
H           1.23125947671195    0.56568265172960   -0.58602249001651
H           2.57891523349110   -0.06779898160057   -1.46975311411480
H           2.77969914819612    0.63685326853522    0.04212836050275
