    26
        -50.44849474  Gyration_radius:  2.48579412752 Dipole_moment: 4.262
 S           0.48914003266615   -1.69596842636413    0.87147506904660
O           0.78220545099649   -0.43579742714316    1.57972349992319
O          -0.27615843913193   -2.60645430994137    1.67288756032294
O          -0.03603627728872   -1.42526695655274   -0.45175371935068
O           1.90378179293600   -2.38518200270373    0.63679621323580
H           1.95824468265880   -2.99509055590132    1.36520536998367
O          -0.95158047175192    1.89875339024716   -1.15341988333362
H          -1.46626468257738    2.69818745301421   -1.03593062788726
O           2.79915426957330    1.06174292634836   -1.51296836217100
H           3.14162591489377    1.74897692281103   -2.08674368052131
O          -2.35405836377276   -0.09654443348589   -0.42049798815091
H          -2.44596681571193   -0.10921762568771    0.56429261633925
H          -1.56215186199118    1.12548820725718   -0.88404164105986
H          -1.66492721562003   -0.76591851626269   -0.58370392065020
O           0.68893314946622   -0.00880132816795   -2.59416775218643
H           0.00750534887456    0.66755097169852   -2.49669127039272
H           2.11093206553196    0.56265740578745   -2.03664411185115
H           0.46919705343418   -0.68361740826733   -1.92212068397454
O           1.12465712374788    1.63190824241209    0.31815208854356
H           0.28009695101428    1.75815411515303   -0.24827796936988
H           0.98481673609522    0.71046503106142    0.89023214157694
H           1.88409390317258    1.43937645001554   -0.34260608129313
N          -2.07519823028268   -0.42611022721573    2.22566322995806
H          -1.56742376892125   -1.30129309485680    2.10406640178753
H          -2.81039668654170   -0.58986997005753    2.90337632415311
H          -1.41422166146943    0.22187117680158    2.63769716732243
