    26
        -50.45381469  Gyration_radius:  2.64790863022 Dipole_moment: 1.738
 S          -0.05401605935918   -0.61397189540008    0.51442217476611
O           0.27609633639425   -0.77481944257550    1.98920464909403
O           0.71210071700479    0.49415454817465   -0.02969315357164
O           0.42783372441522   -1.91404997734508   -0.11774502351213
O          -1.47309566697092   -0.49616383260622    0.32778499518454
O           1.60783791796471   -1.41688381819023   -3.47617759475368
H           0.75536049407116   -0.97384451651927   -3.22879176887747
H           1.39100620293203   -2.32779797227854   -3.68143382153324
O          -3.01906437558467    0.71024341970063    2.15172633739092
H          -3.58654705931341    0.03038840933996    2.51969133885418
H          -2.56815301693613    0.30542767020178    1.38508018571981
O           0.51913360747419    2.72988751477732    1.43314665673036
H           0.58725985474597    1.98663824232075    0.80227942031751
H           1.41142843527747    3.05266016304551    1.57224461912465
O           2.62643170136444   -1.19279407691582   -1.05850257660192
H           1.39480248926703   -1.74928198071932   -0.46324913275175
H           2.41575006199681   -1.28256850506450   -2.02635838533479
H           2.42270194455029   -0.27674537516480   -0.82879914195704
O          -0.64071727552162    1.15825217508421    3.24260645497875
H          -1.59409939521701    1.11336940469548    2.99264351684612
H          -0.09690253608904    0.03297451079584    2.59534995714660
H          -0.26233802141199    1.89996008281927    2.71751210651190
N          -0.62296655866335   -0.25754693281890   -2.49870068532307
H          -1.26387679177936    0.28925671342547   -3.06175852400288
H          -0.18980292748689    0.37249616613787   -1.83080420841718
H          -1.17616379307424   -0.89924068491808   -1.94167836602135
