    26
        -50.44849478  Gyration_radius:  2.48583992795 Dipole_moment: 4.259
 S           0.33815920649974    0.44521714932691   -1.88759932401156
O          -1.06123809227613    0.34811378921122   -1.43197774211322
O           0.61627002614347    1.69608801729375   -2.53185466915705
O           1.24666825982154    0.06788069422070   -0.82350015938952
O           0.49628432702992   -0.67825657437483   -3.00299596563334
H           0.37193039799268   -0.18666564419605   -3.80825764838182
O          -0.53148381754345   -3.31167384176804    0.05154745981941
H          -0.68803204093711   -4.04924426888834    0.64338980108142
O          -0.12615904726649   -0.27414094313387    2.39786990377219
H          -0.56061747697721    0.04027294353777    3.19171540747301
O          -1.63457329602557   -1.05851895075516    0.48557091402974
H          -1.38998536977476   -0.43641194620631   -0.37984484715815
H          -1.29454262307144   -1.99876085453261    0.26024662037179
H          -1.05476547469696   -0.72495002419689    1.26184434904630
O           1.58302453832036   -2.00632157754318    0.82166752979150
H           0.37361005221901   -2.95115594825333    0.27014682612372
H           1.62422348653018   -1.31449514430896    0.13247771705592
H           1.29508489115168   -1.54404941772385    1.61834554761581
O           1.10384442281344    1.67168879943273    1.30887124231638
H           0.38215652193106    0.52551829074422    2.01639315624460
H           1.43026434263225    1.16505202146087    0.54310801582359
H           0.45887953721161    2.30017300546246    0.89964862060174
N          -0.60577343170089    2.99970206297507   -0.27293548716844
H          -0.73535349512531    4.00306494136055   -0.32865641595372
H          -1.52095029619281    2.56730117692651   -0.31818167647044
H          -0.11692554871178    2.70457223392849   -1.11703918572844
