    26
        -50.44849473  Gyration_radius:  2.48591190894 Dipole_moment: 4.262
 S           1.77913684159946   -0.63720231725686    0.55253037357614
O           1.43587869825914   -0.67671664227708   -0.88134498563466
O           3.00355749109815    0.06721191807607    0.80076167321599
O           0.63703482530610   -0.21312233626607    1.33730753376253
O           2.04186479759213   -2.15144153599622    0.96401122152540
H           2.98936616668869   -2.21830795563971    0.90540046791587
O          -2.11204701990461    1.09393027111844   -0.42797043970056
H          -2.55571059154571    1.72664111125081   -0.99422737930807
O          -1.90097497040994   -2.75475861829139   -0.23055393918352
H          -2.79723636731405   -3.04986014138115   -0.39914412958540
O          -0.18459596384445    2.26234633546967    0.75712485704549
H          -1.37416089873285    1.61135374795071    0.05288380370872
H           0.13325901958448    1.47204417803763    1.23043393230560
H           0.54856166562907    2.44829246891461    0.11967331250441
O          -0.90202924971123   -0.84260776426062   -1.58230729521646
H          -1.27537193145861   -1.68361426899601   -1.13075670571311
H          -1.38266208316296   -0.04902562783056   -1.14704051396188
H           0.14650594180232   -0.78030193183258   -1.27885608869767
O          -1.91449484121185   -0.93763131674885    1.63109666234134
H          -0.95781643956712   -0.75090879392852    1.70335255533980
H          -2.28548844512860   -0.16007291077929    1.19628297715196
H          -1.92905590648833   -2.20069862545324    0.59962376115084
N           1.97278217131125    2.20276697096615   -0.83364533192304
H           2.59886260570383    2.97078507030460   -1.04530033902604
H           1.81913689085838    1.68458314259873   -1.69064139496334
H           2.46569760305219    1.56631557224518   -0.20869458862880
