    26
        -50.44849471  Gyration_radius:  2.48584574365 Dipole_moment: 4.262
 S           0.79567983019312   -1.43190570875940   -1.09178588088985
O           0.28727204281618   -2.71003179548832   -1.49773493303759
O           0.12379344577792   -0.31591044127232   -1.78367532602972
O           0.83620715883610   -1.19384207405232    0.33709351218011
O           2.30984969624347   -1.37693221628535   -1.57716067949330
H           2.32306572909556   -2.01763107822752   -2.28072154293139
O           2.31130780594331    2.42953463607629    0.10242743276900
H           2.49993887232109    3.28558898098444    0.49027250593405
O          -1.12535170987776    1.45657637710820    1.56609702371070
H          -1.94777726343462    1.91451002100383    1.74421036874705
O           1.65602702987097    0.74679697123551    1.97512825589002
H           2.24203755672824    1.77831152328477    0.85613242639699
H           0.77193934335442    1.02650472048291    2.24236607147484
H           1.51284821174540   -0.06155026451104    1.44461928434966
O          -1.58563423404349   -1.04571558850600    1.45647112833824
H          -2.07617316829031   -1.26895738227934    0.62702361917440
H          -0.67037479116656   -1.30470801667684    1.24474977952194
H          -1.34889440074071    0.45991059880634    1.56760105222090
O          -0.03702913477447    1.87686753324450   -0.71119023934024
H          -0.50182617077305    1.71589627736416    0.18782763073398
H           0.92370271761550    2.15605679997039   -0.48866267102055
H           0.04033205544235    0.90365364740905   -1.20383791140130
N          -2.35995486577279   -1.67507974153111   -1.03206744384874
H          -2.33259424488209   -0.88543450891137   -1.66630428306866
H          -3.14245852855474   -2.25996342289968   -1.30082400572504
H          -1.50593298365989   -2.20254583756831   -1.20805518465237
