    26
        -50.44849477  Gyration_radius:  2.4858574979 Dipole_moment: 4.255
 S          -0.13460034334939   -0.63231676390207   -1.85926038050080
O          -0.76831380939379   -1.78801501140945   -2.42471356263848
O          -1.11059674067871    0.36925382687646   -1.39031305261159
O           0.85704484207140   -0.89394140200706   -0.83544111007102
O           0.65383251927109    0.07310649429643   -3.04757220278932
H           0.19769733810179   -0.25105266827053   -3.81728426818754
O           1.74897048005364    2.85833547463076   -0.15799047852490
H           2.13972146920241    3.54339094732348    0.38679814379808
O           0.20936772558920    0.38690415658935    2.37607200237531
H          -0.28334123785048    0.46341642158291    3.19411217411905
O          -0.52766378819474    1.88636482026545    0.43785802371827
H          -0.79314483073379    1.22044077793257   -0.38825522432448
H          -0.26278815187291    1.28731972837697    1.22585907237389
H           0.32864837401428    2.36814325743542    0.14646256742028
O          -0.17474036812040   -1.93357639554086    1.39945972700382
H           0.05720078367787   -0.56573521034858    2.04064556160491
H          -1.09401833433127   -2.00789004222843    1.04199133025162
H           0.36021169515548   -1.79191787414374    0.59739058145407
O           2.54743398233277    0.52362810053244    0.66682108672999
H           2.21358879846542    2.00484955431206    0.07133938326959
H           2.07123469119215    0.39288310190001    1.49592702807450
H           2.09276217791053   -0.05490920796948    0.02356553775579
N          -2.41916029614793   -1.89337130710299   -0.06670829781586
H          -2.83589912587862   -0.97178875483831   -0.12644350659289
H          -3.17132720841416   -2.57214617123588   -0.05478363155417
H          -1.90212066207152   -2.02137585305672   -0.93553649433522
