    26
        -50.44849468  Gyration_radius:  2.48585261546 Dipole_moment: 4.264
 S           0.73263660837130    1.59132862896185    0.89801970138523
O          -0.29465082542259    0.80116957388789    1.60229404480205
O           1.91534118593183    1.77517794476391    1.68816161373967
O           0.94161076391257    1.07633430741768   -0.44029295352937
O           0.09331793184054    3.03539537796455    0.70508936187023
H           0.45421730448989    3.51938845184933    1.44071242763435
O          -0.51343121620250   -2.03788106413126   -1.19337933490499
H          -0.63443166772527   -2.98314777623838   -1.09527939910345
O          -2.84501891169035    1.02781221329543   -1.45102189125413
H          -3.55746382581219    0.73593899764271   -2.02204129280406
O           1.85533715415096   -1.43446149473927   -0.47915265150962
H           1.94703489095816   -1.50650302797809    0.50312076853239
H           0.45558793406713   -1.84686842457468   -0.93289875204693
H           1.75869300794315   -0.47495956275105   -0.61920514823551
O          -0.55646967781444    0.51070775492818   -2.57501373330908
H          -0.47070564633327   -0.44765831420189   -2.50110520890572
H          -2.00427890300988    0.97799032391652   -1.98732918174153
H           0.05605293063209    0.86910503274904   -1.90293559757481
O          -1.90753799716675   -0.52898817249790    0.33209299213070
H          -1.19848428681411    0.07186694507969    0.90835767464913
H          -2.37290956792826    0.12272063225665   -0.30760329220223
H          -1.35142898974780   -1.15693689652262   -0.25659627602327
N           1.89067852767664   -1.06340716899800    2.17595199900359
H           0.97319298048674   -1.14128441957721    2.59871635150772
H           2.06616134446667   -0.06463319830293    2.07489845970205
H           2.56694895074043   -1.42820664419648    2.83643933819029
