    26
        -50.44849480  Gyration_radius:  2.48586860115 Dipole_moment: 4.257
 S          -0.58719804935990   -1.87433301483943   -0.13425268560886
O          -0.75858575076870   -1.17894365888453    1.15509230715842
O          -1.81080154012239   -2.45300407007108   -0.60860109462840
O           0.11859622092986   -1.03012831406832   -1.07726287775821
O           0.39447695798637   -3.08880677904076    0.17013355090316
H          -0.20896267333689   -3.81427588044445    0.29330396276221
O           3.08073075322137   -0.12516847225346    1.32166812778410
H           3.83015895352148    0.42260110031293    1.56058376105212
O           0.53427657461821    2.34913046534282   -0.19156790057127
H           0.22962601236141    3.23239729282729    0.02015271803801
O           2.40297673624717    0.34813379976607   -1.14505401035641
H           1.98980686414755    1.21958223938414   -1.11093758454213
H           2.96814004462278   -0.04771332953287    0.33258153334023
H           1.65885186484378   -0.27732346054635   -1.24682238707419
O           0.70622898372154    0.68853247448035    1.74765605135504
H           0.61431210848367    1.36971848409663    0.98768337404667
H           0.05418963679315   -0.15271092726622    1.49685045191026
H           1.66390601702671    0.32771643358971    1.69186801654638
O          -1.19656185891411    1.21702210957047   -1.67742671621972
H          -0.16805816823355    1.94812240728161   -0.81544394160486
H          -0.72787885387448    0.36510734867702   -1.74208644393806
H          -2.00247660476280    0.98684451023255   -1.15214172190292
N          -3.06851662624704    0.09203199162810   -0.12217440761684
H          -2.77655758055267   -0.84905920256904   -0.38238663019617
H          -4.07371117148770    0.14424933011977   -0.23825404992302
H          -2.86696886086865    0.18027713220584    0.86683860704311
