    26
        -50.44849479  Gyration_radius:  2.4858184478 Dipole_moment: 4.256
 S           1.38131763930630   -1.07041488548879    0.90609527013289
O           0.03494427831892   -1.01570661616322    1.50591991024372
O           1.82945413433038   -2.41624134080993    0.69404845367424
O           1.46248446636026   -0.19002848620217   -0.24210037196587
O           2.35355752238748   -0.44090821860282    1.99684652853730
H           2.69633448222822   -1.21248634684312    2.43583079941788
O           0.01071143960581    2.96911469290984    1.56059917042578
H          -0.38039529998208    3.84390379188760    1.53675250086954
O          -1.56296302031887    1.13763724879646   -1.45038155060195
H          -2.43679158334885    1.08589339944058   -1.83966889902195
O           0.97191807288111    2.37697500278048   -0.78332822633601
H           0.51870015975578    2.85496185164897    0.70863795511871
H           1.34139338535578    1.49026576497900   -0.60310676775910
H           0.18860532530339    2.21292763594661   -1.32259030279895
O          -1.41432592185896    0.91142204484277    1.09419061586688
H          -0.88403840689096    1.73556403859510    1.39409681549520
H          -1.50156581576723    0.98459978870960    0.07586484276850
H          -0.76914043265486    0.05105944510958    1.29381941465472
O          -0.20022566390640   -0.87151433738780   -2.21974798690182
H          -1.04227928515501    0.33737544471471   -1.81329905813775
H           0.59875455392525   -0.64960547244104   -1.70791645571942
H          -0.52374132197684   -1.69557937630639   -1.77856645370361
N          -0.70023712560215   -2.93463956704725   -0.58198082641810
H          -0.90094266825284   -3.89200254111488   -0.84618255379228
H          -1.31544254758117   -2.69071263800826    0.18522072168865
H           0.24391364354061   -2.91186030393824   -0.19905354573613
