    26
        -50.44849477  Gyration_radius:  2.48582240817 Dipole_moment: 4.260
 S           0.95480268329292   -1.71043799194233   -0.19636061988452
O           0.77391300594780   -1.16208816365266    1.16080812619279
O           0.47497396579832   -3.05737353027667   -0.30863286852614
O           0.46034262098970   -0.77957195139947   -1.19089697428088
O           2.52902247682399   -1.77550472425312   -0.41731691560949
H           2.72914937720002   -2.68052907843375   -0.20150982031897
O           2.39568442401287    2.34150330041287    0.17570894849835
H           2.53294796849777    3.28892288909628    0.22408120937542
O          -1.43806743526745    1.94218480526388   -0.02104711470214
H          -2.19157365002116    2.35258695303623    0.40509785479987
O           0.50809510234045    1.24761768106386    1.48794607688311
H           1.33136411783097    1.68497337443769    1.06197942032959
H          -0.29157691158927    1.52284262275268    0.90922176438356
H           0.63796691534962    0.17031379050674    1.35309210453723
O          -2.16042596428870   -0.30185347782862   -0.98406754254210
H          -1.78027363435472    1.06762989712937   -0.42285291294944
H          -1.28165053572414   -0.55002000844833   -1.32434790639482
H          -2.30889295041606   -0.95602501089195   -0.25711426576048
O           0.82718760326254    1.78675876698003   -1.82427841546807
H          -0.04230415104336    2.08337349302754   -1.52882318170408
H           1.94451190659163    2.15767275141605   -0.69586535119762
H           0.79437433392202    0.81213282970384   -1.75838581470450
N          -1.96771020940566   -2.16783839546065    0.93146655293343
H          -1.19603242572988   -2.63392255871632    0.45619948231483
H          -2.65340569134366   -2.87495158017655    1.16902589154728
H          -1.58242291267328   -1.80839667335495    1.79687224224748
