    26
        -50.44849477  Gyration_radius:  2.48579621755 Dipole_moment: 4.259
 S           1.30366708211308   -1.28172051030144    0.72953565693507
O           1.81114535232474   -1.46649587175315    2.05820864441397
O          -0.10171098691644   -1.71051497156531    0.60139752320471
O           1.48575821779405    0.03944619701345    0.16258066938862
O           2.13081933235307   -2.26633319967422   -0.20726984524843
H           2.44447130027187   -2.92050032775420    0.40858764238315
O          -0.24816906166793   -0.74376833753227   -3.26122203357722
H          -0.65899104963509   -0.45870268799561   -4.07898301850396
O          -1.42528606445346    1.84125295282171   -0.64803955132840
H          -2.24877043379631    2.28971680662758   -0.45169242085581
O          -1.55271988902114   -0.67835525877964   -1.07588500137207
H          -1.08307887942249   -0.80924534624786   -1.97739394247583
H          -0.90870736927558   -1.15405680966891   -0.33099273799274
H          -1.52890234650764    0.32837762223187   -0.88635585642570
O           0.07100488960591    1.93157478535276    1.41065550697798
H           0.80198745119665    1.41681037854781    1.02297801372924
H          -0.84501496823091    1.93374185097693    0.18745176854744
H          -0.27511916223928    1.32871360066881    2.11434039302668
O           0.98312076204118    1.26340576289410   -2.15521007241386
H           0.35400648125567   -0.00415933231827   -2.96567361183489
H           0.26935948229030    1.81811660446853   -1.81735462589045
H           1.35620496822480    0.82714049050871   -1.36417287578537
N          -0.54623391312516   -0.12085169638359    3.02158413296476
H          -0.68791437056462   -0.09114468487667    4.02441235586463
H           0.34865428646120   -0.57728827118664    2.84998160181735
H          -1.24958111107601   -0.73515975607360    2.62853169445236
