    26
        -50.44849481  Gyration_radius:  2.48582510946 Dipole_moment: 4.256
 S          -0.63930258164686    1.75950427289492    0.60894458536666
O          -1.82258462006540    2.14404742876366    1.32235895156261
O           0.31774147392335    1.03029107070241    1.46202203787740
O          -0.85568729659744    1.04836124354327   -0.63504991580010
O           0.10002981076790    3.10954498198766    0.20640092802195
H          -0.24515089976060    3.72944993359007    0.84056840636532
O           0.39685344071023   -2.23309156348398   -0.83451291053820
H           0.45133862702286   -3.15570522414788   -0.58229826848211
O           2.93504049507381    0.59460126162670   -1.51121458518570
H           3.63736863772758    0.16934776267358   -2.00586715971987
O          -1.93866276495670   -1.37101952278405   -0.29828269155659
H          -0.56179546836186   -1.94067614515475   -0.63758346766089
H          -2.05420457091197   -1.27701300636254    0.67957640441855
H          -1.77363775462125   -0.45511740508287   -0.58723719779078
O           0.63945961709485    0.04860626532177   -2.60681564047239
H           2.10360655716231    0.51163001467423   -2.05785085569546
H           0.48734408380053   -0.87744434763849   -2.38190793363942
H           0.04021994844140    0.55000984641420   -2.01965074243145
O           1.86021397658123   -0.58875343264757    0.47028914988734
H           1.27421769507908   -1.26705376376825   -0.02624900088261
H           2.38081496036965   -0.08053053100027   -0.25161199526746
H           1.18277476793717    0.14175559171697    0.92128433449861
N          -2.00015146503387   -0.57332476815662    2.26074037371073
H          -1.09842825311497   -0.64036783883469    2.71786406527191
H          -2.71226229508021   -0.78207693554943    2.95062904544466
H          -2.10515613155051    0.40502481067733    1.99545411269313
