    26
        -50.44849474  Gyration_radius:  2.48586962256 Dipole_moment: 4.261
 S           1.79707255503193    0.80262144670083   -0.04234097854243
O           2.38319524834992    1.77126273510816   -0.92277050689081
O           0.78606022741589    1.39718598042028    0.85196484535244
O           1.27606682345285   -0.39207213161472   -0.67581219282428
O           2.96483061073917    0.30354116528906    0.91607498951740
H           3.58657683529044    1.02271670215432    0.87322429251224
O           0.01914259417613   -2.08722660122782    2.62642116144821
H          -0.51276236125186   -2.73944320568476    3.08522009477844
O          -2.17667345598816   -0.98961297593176   -0.35213659570309
H          -3.10521703923086   -0.79267194201803   -0.48182275496072
O          -1.05381096039026    0.03109134960166    1.70811407953229
H          -1.52522627307617   -0.35324036110264    0.88338847659669
H          -0.61906331924280   -0.76564460175474    2.18425812740239
H          -0.22847344376685    0.64683911339548    1.34020052343261
O          -0.83951824484822    0.07545986917506   -2.23967473634500
H           0.03406191654355   -0.20577428690473   -1.91199050821722
H          -1.68500265508813   -0.57743318510744   -1.14693538535150
H          -0.81136729905120    1.05803586620161   -2.12926134790760
O           0.13691608554836   -2.67868971302025    0.09574142237569
H           0.18685966826613   -2.44299070844676    1.70867643578976
H          -0.74347108236012   -2.46382314883090   -0.23598358573799
H           0.70945300462872   -1.95593362491196   -0.22852965668649
N          -0.28944353363108    2.61651578930392   -1.58474836065165
H           0.70610333290602    2.41956151500931   -1.49170975381911
H          -0.60999598206015    2.86428656609066   -0.65608314372414
H          -0.38631325236616    3.43543841810474   -2.17348495137641
