    26
        -50.45381458  Gyration_radius:  2.64765750692 Dipole_moment: 1.726
 S           0.60511429327433   -0.02274091444512   -0.52988647787089
O           1.19790920274564    0.99820594382180   -1.48693149701966
O           1.81920869561184   -0.74657223207879    0.03944101161682
O          -0.08405672605847    0.67136364982100    0.54438437195934
O          -0.21287303296285   -0.96323251461619   -1.24334496060471
O           1.27762958087402   -1.81486212938455    3.42696010103415
H           1.90952645438845   -2.52353099196808    3.29474733710940
H           0.53907636510912   -1.97360367234240    2.78385176609896
O          -1.79123926201709    2.54154331287094   -0.32940386028183
H          -1.61065205240098    3.34164493584523    0.16750016642082
H          -1.25076618348337    1.83476282584156    0.07485346882705
O          -1.61910095466048   -0.22486488918414   -3.39923738952300
H          -1.23791253190605   -0.69151879292181   -4.14528261148682
H          -1.21048438640382   -0.60850416416958   -2.59869801354531
O           2.06356572574837    0.40238038944292    2.24406575502370
H           2.07034440292442   -0.27464603429736    0.93131588179856
H           1.23032406751043    0.86751539933443    2.09349780767355
H           1.84323672982466   -0.36257976151921    2.84020609557699
O          -0.64047653711595    2.14071230722158   -2.69645569037600
H          -1.19818842726591    2.42391284878342   -1.93624420513351
H           0.45100955567188    1.53205924660986   -2.04942523104876
H          -1.10991916847722    1.37262559353588   -3.10023995019284
N          -0.58808720882859   -2.02889826290077    1.49093345313239
H          -0.78018435479816   -1.04192010325355    1.35115789000241
H          -1.47754246985764   -2.49721357199162    1.61849165811758
H          -0.19546178743310   -2.35203843806352    0.61374311267022
