    26
        -50.44772985  Gyration_radius:  2.51303431575 Dipole_moment: 2.777
 S           1.88146263247648   -0.78906508579317    0.55063136525628
O           1.28682093181556   -1.76822017965936    1.42900011023504
O           1.97492181808624   -1.28439562267128   -0.83378581285808
O           1.26110741633207    0.51487547279084    0.61585514938042
O           3.38014320610110   -0.60166569840815    1.01852117838497
H           3.67865541987657   -1.50476840472223    1.02201747333501
O           0.11144515309884    1.26014578312616   -3.16650520807969
H          -0.55188132938763    1.56971210975517   -3.78512828326702
O          -1.95667640054870   -0.65419061292340   -0.64789281407699
H          -2.75384660309023   -1.15697874466404   -0.82221296555331
O          -0.63967311700960    1.83714087427710   -0.73754227655581
H           0.12044277231231    1.50281214778556   -0.22364325513226
H          -0.11603832283365    1.65140798918419   -2.27671049312766
H          -1.33311799501595    1.17617438241676   -0.60372738694879
O          -1.29002742449509   -1.22211130021016    1.72048763022085
H          -1.68839908621068   -0.89214006614350    0.31961923593654
H          -0.36650571826661   -1.54844079910425    1.67522995230520
H          -1.21677612487247   -0.35423468052818    2.18451086531172
O          -0.01605649369596   -1.11322417549933   -2.24582569740295
H          -0.79964896681700   -0.98505991875482   -1.59723862561473
H           0.09761380806634   -0.21240364267653   -2.72365342266007
H           0.87985899485521   -1.22564475458642   -1.63433877188145
N          -0.65197760351877    1.23117710105456    2.67084578874488
H           0.17489577263600    1.13119854695018    2.08349306578626
H          -0.33908666580509    1.36036204634701    3.62450483023046
H          -1.12765605409715    2.07753726269011    2.38348837804370
