    26
        -50.45379118  Gyration_radius:  2.52435790967 Dipole_moment: 3.725
 S          -0.55782457247963    1.29723536007809   -0.00790234626021
O           0.47131766216279    0.89084214956976   -1.00657950684440
O          -1.81522992921541    0.62959054444200   -0.30378101927279
O          -0.09409008632310    1.05537022082336    1.33811650501598
O          -0.73348825519979    2.82136006119530   -0.19668402256310
H          -1.10874684059896    2.88030065312178   -1.12463210106255
O           3.28802633740678   -0.92179705667183   -0.04113891722282
H           3.50766502055161   -0.03583432851020   -0.33674176021447
O          -0.11691087725325   -2.49305792503133    1.07754678168862
H          -0.48389350022437   -3.37448724311631    0.99239102801644
O           1.81727076148719   -0.65682921545892    2.10593284242022
H           2.88989471622743   -0.81843141447959    0.86636304584301
H           1.19721718862941    0.07325015772696    1.90688543677482
H           1.27842505174256   -1.45719493658351    2.09208197215057
O           1.01605413413225   -1.48060140889593   -1.03732147212402
H           0.69815970524115   -0.37645083508749   -1.06940738241498
H           1.99615447939368   -1.38073583978581   -0.74182887429129
H           0.54085526672081   -1.90025424762282   -0.25396619156079
O          -2.00215134875445   -0.88097247796970    1.83337132746582
H          -1.54739202899758   -0.25891460947936    2.41155519477370
H          -2.12357831829238   -0.37111469113297    1.00200206973403
H          -0.87089224295627   -1.90406760899415    1.38398607434631
N          -1.72453668567078    2.34110227335147   -2.54714518543831
H          -2.09432925055374    1.51816238754134   -2.07812586517549
H          -0.97425654717695    2.04222479025430   -3.15629537782557
H          -2.45371985000287    2.76130525071596   -3.10868225596353
