    26
        -50.45379105  Gyration_radius:  2.52421928643 Dipole_moment: 3.725
 S          -0.20010949770680   -0.68103314650210   -1.22083008467036
O          -1.50835203999142   -1.01979464588838   -0.68385494350832
O          -0.01048633564885    0.79669345254838   -1.18085399634107
O           0.88021485450511   -1.35818592814718   -0.54278242672638
O          -0.15010009034360   -1.06099152373493   -2.71840622998430
H          -0.96067780033406   -0.59752152872782   -3.08389091435557
O           2.44454880258024    2.23360423051941    0.83353353872126
H           2.62790539495382    2.34376702622047   -0.10179462797930
O           0.02217259742328   -0.19924412080139    2.71073608115626
H          -0.49385140889397   -0.11040484250968    3.51364355058756
O           2.51424101015304   -0.33605473347293    1.31693562422190
H           2.04599291031641   -0.75351160347599    0.56617755729296
H           2.65238933730352    1.28223154196227    1.04468791590318
H           1.91645256394323   -0.42515448505321    2.06916056929513
O          -0.75615281680773   -2.33267709206296    1.45924210549289
H          -1.22010912180439   -1.91577756508591    0.69968674325533
H           0.05523601172068   -2.67138065963493    1.06558038680240
H          -0.29763634578962   -1.04028958190241    2.26382813202601
O          -0.05141913739285    1.79498275352738    1.03808281587366
H           0.92323936854441    2.12448510422633    1.03745937372016
H          -0.11037983686552    1.32762368069492   -0.00949637843544
H          -0.07775414263270    1.03554310920181    1.70014577293428
N          -2.35872436447748    0.26160221443519   -3.05103176167255
H          -3.17892918689697    0.13794424588366   -3.63029171920713
H          -2.15460703491347    1.24983524604011   -2.98012839057809
H          -2.55310369094705   -0.08629115827200   -2.11553868382523
