    26
        -50.45379112  Gyration_radius:  2.5242959503 Dipole_moment: 3.725
 S          -0.97791040784765   -0.30319592861691    0.97273371349051
O          -1.35876734584991    0.16675682567707   -0.38942084882248
O          -0.46895346125822   -1.66312433513266    0.89517906789617
O          -0.04894713151426    0.61204331257901    1.59295556994484
O          -2.28934688383747   -0.29576035382830    1.79101364657008
H          -2.83682877016759   -0.99410249246595    1.32401456887089
O           0.32542010953360    2.81098535090344   -1.91064585892110
H          -0.58404044395751    3.03037024125447   -1.69776730243996
O           2.64391581890203   -0.07057880630122   -0.63110762165275
H           3.34360456484199   -0.57505181962086   -1.04919601759333
O           1.54678226557041    2.37553659954553    0.36118262399868
H           0.82213230430228    2.82776636105380   -1.04706150944929
H           0.91863304577918    1.85069169770594    0.89696991991905
H           2.24392115151796    1.75719649104067    0.11065426447186
O           2.01771920147621   -1.22189651207949    1.60645524986423
H           1.80514188244172   -0.48336654513173    2.18733839589070
H           1.13565824115560   -1.58138221497732    1.36433332016552
H           2.44032955458150   -0.53810923342968    0.23446317040733
O           0.45835973331554    0.27359152535699   -2.00437950091703
H           1.31039607348494    0.08890449497311   -1.49887374945658
H          -0.40694944359860    0.14706643800161   -1.25910034838427
H           0.43558457675026    1.29307211300716   -2.14017293612758
N          -3.16688252439282   -2.20068298321748    0.26183694998995
H          -2.18878486255799   -2.47860721717082    0.26971512885146
H          -3.37322628339338   -1.81146852649714   -0.64877899965375
H          -3.74696097527335   -3.01665448263062    0.40765910309204
