    26
        -50.45381463  Gyration_radius:  2.64809933585 Dipole_moment: 1.733
 S          -0.50469823410182   -0.56716629191845   -0.26217339848881
O          -0.52514957716976   -0.63537334176540   -1.78428240621644
O          -0.28234045220498    0.80771471473001    0.15135954762028
O          -1.90541704559585   -0.99274578364783    0.14645153779750
O           0.46845809260860   -1.49717617336016    0.23858027211298
O          -0.91115630780813    1.25167107129468    2.71765119660947
H          -1.46507032863771    2.03422953556353    2.73997192646867
H          -0.58858022007443    1.16508531974289    1.79929825204853
O           1.60756515722133    1.84757290149955   -3.26820320264186
H           1.71407869112373    1.28471032173543   -4.03688433895380
H           1.97544874352769    1.34290276336746   -2.49732907243436
O           0.11838569777154   -2.75398583006381    2.57701989628227
H           0.01200776680414   -3.68488536758685    2.37263214259534
H           0.39774559293667   -2.32133272376096    1.74648880367259
O          -0.86261733206791    1.77179418464773   -2.36036725046253
H          -0.75840459353879    0.31612778694253   -2.13305384906966
H          -0.75272979527314    2.00951626882318   -1.43047210520429
H           0.01575860097386    1.95051573750600   -2.79141856235407
O          -2.01209396457514   -1.17085626809020    2.61746653156008
H          -1.66020891673838   -0.28673168959118    2.86929762216143
H          -2.02138731118325   -1.09295263224285    1.21200286615755
H          -1.28172191327573   -1.80975014877749    2.79558653105771
N           2.30494221734961    0.39592034972938   -1.10469274275508
H           3.22456444602552    0.42917558949611   -0.68046564632016
H           2.04581567230037   -0.57995925458729   -1.19713895667836
H           1.64680533360218    0.78597897031821   -0.43732559456565
