    26
        -50.45379111  Gyration_radius:  2.52430728756 Dipole_moment: 3.724
 S           0.42201033581022   -0.97081765871705   -0.93462694613928
O           1.10604145517747   -0.81271641677427    0.38007812638175
O          -0.88894305439033   -1.56718311517996   -0.73407976052101
O           0.36698754332795    0.28700600494328   -1.64190775449616
O           1.30726362813251   -1.94647387232915   -1.74330427763454
H           1.23452883375082   -2.79288758819078   -1.21070952785555
O          -1.88747307450102    1.85552659173482    0.62013366606239
H          -2.71240076034414    2.02072300840271    1.07952344555786
O           1.85813725387063    2.34908745542562    1.64023044025101
H           2.64524635914394    1.84957444056159    1.41323641609365
O           0.54647094816094    2.74289244561779   -0.58840845633135
H           0.59155906726525    1.89213148809196   -1.06940186051807
H          -0.36696532150150    2.81420624345351   -0.28565164168928
H           1.46434013548207    2.65039432282477    0.77595646492903
O          -0.01002046915475    0.65560710501845    1.96757966855464
H          -0.77555621210256    1.08975590635381    1.47648516946266
H           0.46984056928585   -0.09518538822889    1.24249890672257
H           0.72951417287969    1.36951158269892    2.00851507257589
O          -2.38781972866240    0.44602086934435   -1.49806339266681
H          -1.99911143065002   -0.41227030928581   -1.21851015154197
H          -2.12408419884727    1.32190586109389   -0.19754864800494
H          -1.75413641653688    0.77761911032739   -2.14345463239173
N           0.68716832234683   -3.80367393350536   -0.03912181385347
H           1.16266424304042   -3.61050036461680    0.83260890041778
H           0.51724649068102   -4.79884108591824   -0.10527785191137
H          -0.20250868165792   -3.31141269314889   -0.02677951145094
