    26
        -50.45379111  Gyration_radius:  2.52441733015 Dipole_moment: 3.725
 S          -1.22379645103667   -0.04012953214329   -0.70309258169137
O          -1.05099547610248    0.82047225505787    0.50145353122053
O          -0.47119447825204    0.51917197417563   -1.81451018430287
O          -0.86835085613700   -1.40952907888629   -0.41371384018499
O          -2.73325979873908    0.01255647173530   -1.03209276503524
H          -2.86615013861997    0.97677283209886   -1.27314270252341
O           0.56537218356285   -0.38300755871235    3.34634758440662
H          -0.36806423898842   -0.22033586530597    3.49744108134017
O           2.60506834730612   -0.77701931940999    0.02975735326928
H           3.50228759956644   -0.54194997044792   -0.21238343212186
O           1.30042031444736   -1.39093146388370   -2.12557378259235
H           2.13870264465172   -1.02081283522140   -0.82600819843462
H           0.70992108173465   -2.09564916438005   -1.83798724505379
H           0.70808153112012   -0.60902937566925   -2.18588756862901
O           0.71859689253768   -2.28584430241531    1.55801303412502
H           1.56272401914783   -2.10345078867755    1.12758930188118
H           0.61559192324887   -1.22191138051822    2.81107754070906
H           0.03764461751428   -2.06899085548784    0.88988460841555
O           1.22970169551179    1.01320627854947    1.32780060563284
H           1.78885736042018    0.36344677806636    0.79794893412755
H           0.16919460328645    0.97929949772834    0.88681310239178
H           1.06595511937904    0.55722317581464    2.23526215838518
N          -2.44467996650770    2.52716696155486   -1.60707282823510
H          -1.53638404060874    2.21161088501715   -1.93785250764759
H          -2.30266729718753    3.03937783377811   -0.74642112889829
H          -2.85257717125736    3.14828654758883   -2.29365007055265
