    26
        -50.45379113  Gyration_radius:  2.52436322644 Dipole_moment: 3.724
 S           0.22809883304747   -1.36479174998243   -0.28121690272225
O          -0.92981343191126   -1.25940972079177   -1.15447492776765
O           1.22748517517912   -0.32157013590279   -0.64771446970657
O          -0.11290482252797   -1.28282794464120    1.11962319594096
O           0.93461204527356   -2.71647115077578   -0.53279700374744
H           1.07382541099788   -2.70369088542137   -1.52570772603870
O           2.04429273972370    2.23565984040947    1.57635623306343
H           2.77681645842101    1.63467623883630    1.42537707124027
O          -1.78740658350089    1.84780418404482    0.88326779362858
H          -2.46781142419444    2.47353747320456    0.62964352910330
O           0.15226838835263    0.84323670157274    2.72695269890606
H           1.40922446368790    1.75159944676596    2.17232134596442
H          -0.64783760492432    1.30688133234784    2.45127996497433
H           0.13186855851071   -0.01012473861488    2.24895051468881
O          -2.73049412373474   -0.55305565519116    0.61790860939335
H          -2.21534640337706   -0.84473454103607   -0.16663182710161
H          -2.32231258684592   -1.03642939037533    1.34439637539127
H          -2.19396919286674    0.93486640962586    0.78066538956627
O           0.47171329957899    1.97877730878160   -0.40515208049317
H          -0.42939579836537    1.94489255192737    0.04486271911406
H           1.13695556053908    2.24474970595126    0.33302880760931
H           0.79454824696794    0.89165087304526   -0.59008990513399
N           0.94282517056850   -2.15591382209282   -3.06722566025321
H           0.05458048410814   -1.71706152204924   -2.83833711799860
H           0.83817734514338   -2.69968943239767   -3.91395942521669
H           1.61999982215424   -1.42256135724394   -3.23132721240705
