    26
        -50.45379117  Gyration_radius:  2.52455324948 Dipole_moment: 3.722
 S           0.29071046103083   -0.79930124009402   -1.12709017459470
O           0.73326277321322   -1.19673863145478    0.23956116565089
O          -1.14966178862243   -0.96337940656587   -1.24060898117930
O           0.73249335555425    0.53859664077113   -1.44346512120857
O           0.99323956770241   -1.78483496626014   -2.08871879643749
H           0.58211532628249   -2.66296808046036   -1.83306811451641
O           2.11645542481316    1.14027364107169    2.42552352375407
H           2.75415805677207    0.48087023608539    2.14422161316327
O          -1.35429515676602    2.16443193297080    0.93551362531200
H          -2.16712758405774    2.47494046841200    1.33769318720913
O          -0.18732166339254    0.12714299548110    2.06200591558718
H           0.70533707017191    0.52667095259876    2.38077874457406
H          -0.68975964128712    0.89337038142405    1.64245497753850
H           0.18227837331289   -0.54113043156003    1.20309034993857
O           1.41245501372433    2.46866578743097    0.28478568254274
H           0.51858829622666    2.76005637121405    0.50202272665466
H           1.99414276988576    1.75353920189716    1.64981784993103
H           1.29943347716344    1.79316578964175   -0.41377651105959
O          -1.83666483335642    1.55139536211982   -1.53753733195707
H          -1.57824384169472    1.95157523761639   -0.02040963371147
H          -1.02613151420925    1.80290341902191   -1.99340477515783
H          -1.77022168758711    0.57254388575690   -1.47976607878030
N          -0.44115844854679   -3.69045023998052   -1.06493206112886
H          -0.87442544954131   -4.52743299484187   -1.43281690782918
H          -1.13778606943218   -2.95251140989214   -1.00060956824791
H          -0.10187232735622   -3.88139492238909   -0.13126532603616
