    26
        -50.45379113  Gyration_radius:  2.52434817793 Dipole_moment: 3.724
 S           0.70346439389219   -1.22026347841788    0.10177324878580
O           0.39358426743780   -1.14800876690152    1.52065850461089
O          -0.55437427877151   -1.11533986859755   -0.69087651211409
O           1.66176246366640   -0.22461909828615   -0.31749946433173
O           1.27841931909650   -2.61775832799697   -0.22364172442916
H           0.57931764733423   -3.22990262430995    0.15307177085840
O          -1.12205043804722    1.60238904877837   -2.79921024990559
H          -1.01331217119837    0.78118773273790   -3.28331890144383
O          -0.19503583407991    2.56498597810726    0.87894845523572
H          -0.60086133950636    3.15272815498715    1.51824546192808
O           1.58143978400811    1.11964921375252    2.09521824214389
H           0.49328104321585    2.03482632688443    1.38339852128363
H           1.12256514013787    0.25067372430134    2.08059652035026
H           2.27605974919093    1.01555502973558    1.43587970944724
O          -1.78382076421366    0.96809244445959   -0.42745576467578
H          -1.20480045856401    1.58192057679837    0.12351256822684
H          -1.67928496863579    1.29092207782243   -1.39854303279944
H          -1.23887400005412   -0.04164125556238   -0.48726562940429
O           1.15137574972181    2.07381791081636   -1.59439034749058
H           1.44055178221882    1.20918757556052   -1.23949317750836
H          -0.20998424520832    1.86746051866342   -2.49803427771411
H           0.87900259271784    2.58560507216103   -0.82302712654556
N          -0.77471012551972   -3.65939787166274    0.97522585682624
H          -0.67400978603754   -2.84262997849318    1.57249950533585
H          -0.91980051725357   -4.47836730837079    1.55127420554340
H          -1.58990501555676   -3.52107279695250    0.39245361780791
