    26
        -50.45381459  Gyration_radius:  2.64796501405 Dipole_moment: 1.736
 S          -0.21148634416110   -0.65081879974626    0.41767690605675
O          -0.05775113675850   -1.35453330989581   -0.82480262143127
O          -1.49348258616730   -1.07685730777291    1.11407466171194
O           0.89220524875340   -1.08099826366398    1.37635662617202
O          -0.19473317435581    0.79620908811661    0.28868862513266
O          -2.18042042404491   -2.04919586143851   -2.30264428320782
H          -2.21768034450083   -3.00737566520858   -2.29068894062724
H          -1.32598847885939   -1.80341312405103   -1.89710932683593
O          -2.44848452565503    1.78399532934607   -0.77082213422544
H          -1.56803846920489    1.50805102448208   -0.44892370211198
H          -2.73110005262723    2.50679184764932   -0.20743525744194
O           3.71135592803217    1.14370693356017    1.26180563256802
H           3.32224964561453    0.86635847986063    0.39247662963107
H           4.28134472123402    0.42690872065022    1.54504069224467
O           1.39630189679910    1.08432941753508    2.51506082029283
H           0.81144747233797    1.54334933642568    1.89811164107477
H           1.11504124328064   -0.26248537835105    1.97771441736109
H           2.31850780177821    1.22672800591741    2.17101723981032
O          -3.41464236595173   -0.66939604074624   -0.39988061169059
H          -2.37116213479161   -0.92890051677903    0.50868614340031
H          -3.25386291890517    0.27331005541798   -0.63316172967763
H          -3.14651584742568   -1.19026437903131   -1.19370316221132
N           2.39339803719288    0.30350224486536   -0.93682524035204
H           2.69285597615676    0.50683424783135   -1.88325693371798
H           1.51435125953994    0.78786123741161   -0.78415085133343
H           2.16628957267885   -0.68369732236469   -0.89330524060277
