    26
        -50.45379105  Gyration_radius:  2.52444160959 Dipole_moment: 3.722
 S          -0.11298932770169    1.17839318885300    0.76967982675534
O           1.20458161931670    0.51618719140256    0.55375862381585
O          -0.55081179532366    1.80855212534924   -0.46555466114881
O          -1.07879627229937    0.24465392729406    1.29943204073132
O           0.14539064838366    2.26893727577612    1.83436304761288
H           0.77098589350708    2.89020352319051    1.35681969185106
O          -1.28272281914878   -1.74829948058453   -1.64150084632920
H          -1.49268233571528   -1.97110202792673   -2.54986091491873
O           1.53399667143700   -2.94403480660193    0.79854297229657
H           2.00118665016661   -2.48129880478919    1.49723946453244
O          -1.00955288456779   -2.42671831316885    1.12219368268180
H          -1.35573713361207   -2.49996252486771    0.22448226136994
H           0.56710436618066   -2.89451382966247    1.03404647144608
H          -1.05473134728463   -1.47348136497330    1.33768132613865
O          -2.66563766353283    0.33682737467274   -0.96065167922726
H          -1.94650088956475    1.00561455597177   -0.92183722613599
H          -1.84576584466024   -0.94855720185269   -1.41187259902548
H          -2.87114758400973    0.17711484433096   -0.03312935696395
O           1.21829951845221   -1.27509072550692   -1.09328430108323
H           0.25938156881406   -1.43639200892784   -1.35828701870085
H           1.22051901454170   -0.37883862735165   -0.37502398690051
H           1.45373561787695   -2.03410382250172   -0.43987880370931
N           1.63498394922746    3.50193022387763    0.10268264963796
H           2.49385306012087    2.98007412506324   -0.01260428161753
H           1.81135768821084    4.47399097554240   -0.11536396510761
H           0.95169962118038    3.12991419738050   -0.55207241799763
