    26
        -50.45379117  Gyration_radius:  2.52442088246 Dipole_moment: 3.723
 S          -1.33423988751512    0.19913753660310   -0.41641959974245
O          -0.69374562283074   -1.14496319344448   -0.48684050879065
O          -1.59492035981075    0.54326140279141    0.97209511430526
O          -0.53542246681299    1.18768169359260   -1.10194569683468
O          -2.67817758780454    0.05289401791654   -1.16602459841547
H          -3.17553776076660   -0.59870653775101   -0.58852664023121
O           2.56434031215391   -1.51667792995009   -1.66913574303567
H           1.91589438938028   -1.91436039435861   -2.25391078581926
O           2.16953180594064    1.10671056456163    1.20752294979297
H           2.63286032138391    1.23526034018640    2.03676318771762
O           0.03759385139336    2.58299910018441    1.21364638549959
H          -0.64569174716155    1.88196294158908    1.30054369212147
H           1.36169134042206    1.70289284003320    1.24268925660582
H          -0.04532991372872    2.86217190270339    0.29538061613970
O           1.46678776531951   -1.33039737045428    0.61721065676868
H           2.01643248533605   -1.52421485852879   -0.23027171583600
H           1.73088336014149   -0.40041033256131    0.90157149171781
H           0.41251004332136   -1.25556771352132    0.16493877353914
O           2.08319183214398    1.05456148839382   -1.64926475876526
H           2.49357898115807   -0.53262939965397   -1.80854005216617
H           1.10950444438747    1.13530522081124   -1.59882972132484
H           2.40456524300036    1.32224867039947   -0.77968904558347
N          -3.46715161136475   -1.55390469875649    0.71360737367242
H          -4.35295326379470   -1.73047432738293    1.16945086843654
H          -2.90753845034792   -0.93582498193576    1.29561886677813
H          -2.96865749355430   -2.42895596146787    0.61835966344167
