    26
        -50.45379105  Gyration_radius:  2.52424212618 Dipole_moment: 3.724
 S          -0.66535541916931   -0.67244475457553   -1.04865229768542
O           0.74150251384119   -1.00346063800839   -0.68492480630751
O          -1.56409986993649   -1.15785597456791   -0.01363835653214
O          -0.81267277899389    0.74084882797596   -1.30592352687510
O          -0.94054495882452   -1.43854247868542   -2.36282826489810
H          -0.87409644483727   -2.39541336919148   -2.07066131625380
O           3.06127715373782    1.51163596301092   -0.02445951349190
H           3.26664729450303    1.02525451100722   -0.82559840726993
O          -0.24404300397784    1.76265744987559    2.05569244426399
H          -0.41534518052942    1.86376328428064    2.99339882103856
O           1.55670122535210    0.01100170219424    1.37126872692977
H           1.14060590862968   -0.52483222728732    0.44459003931054
H           2.28389693615784    0.59357866894268    0.93504287626516
H           0.84631714045808    0.65523688223446    1.68135526123826
O          -2.46566108928488    1.14119901635418    0.87180145299299
H          -2.27669769923861    0.20216609880578    0.65166750867794
H          -1.12687337028727    1.53728277567405    1.63235644261088
H          -2.39960102955463    1.58693474263556    0.02034673946372
O           0.77616446075591    2.71493512155412   -0.43926217076488
H           0.41069725856097    2.78611012581768    0.45095078230325
H           2.29505522410550    2.10646954764043   -0.25235951307558
H           0.21519303565969    2.05561703880925   -0.89503382915303
N          -0.72509970267857   -3.65469685508823   -1.02871706506733
H          -1.18311655498983   -4.55573495513118   -1.07194360027203
H          -1.14953049618219   -3.09764501113012   -0.29149970224487
H           0.24867945673883   -3.79406547315331   -0.79296873519601
