    26
        -50.45301695  Gyration_radius:  2.45789120395 Dipole_moment: 2.638
 S           0.03357872850072   -0.28717618552309   -1.44955544118130
O          -0.90464758982321   -1.38375940071420   -1.58484562197142
O          -0.38746078117515    0.63913962362993   -0.39638203464039
O           1.40361962966198   -0.73971273592881   -1.20543163395223
O           0.07702807174115    0.51812142199506   -2.77852674606392
H          -0.88116497481111    0.73427904463704   -2.94093365891579
O           1.20003881520631    2.33380429357694    0.82147293718296
H           0.58059016953038    1.94181992607821    0.16476444803611
O           1.40884408114756   -1.35354962565530    2.29660073950941
H           1.90510602522828   -2.12656399253324    2.57121903093515
O           2.61423493899214    0.26282800041282    0.68556092749636
H           2.23275490288451   -0.33903141629216    1.40565667262249
H           2.17669566114062   -0.15182092494175   -0.20232750012927
H           2.14120634546379    1.20114683129747    0.78482271041018
O          -0.67526218254102   -2.13271180758336    0.91464297529408
H          -1.47519980548241   -1.75036459181737    1.28377466750773
H          -0.72070497872367   -1.96458995923230   -0.05374792415099
H           0.66046860783753   -1.69151623921412    1.73368922219297
O          -0.49278948117493    0.84760511501625    2.35921402592515
H           0.71479126263275    2.23604346614377    1.66063050438633
H          -0.65588652728658    0.67274353257222    1.41720284271032
H           0.04761549460800    0.11908194509932    2.68105169274299
N          -2.52766613883929    0.68364439305804   -2.65873072876647
H          -2.77519321508761    1.30146676626015   -1.89679131494511
H          -2.41860232472892   -0.25326186087631   -2.27982187051996
H          -3.28199476502060    0.68233436051809   -3.33320892181868
