    26
        -50.45301694  Gyration_radius:  2.45786359124 Dipole_moment: 2.639
 S          -1.27086074500460   -0.37887858892895   -0.65407249565999
O           0.19194123005871   -0.40067731454473   -0.71992359735917
O          -1.76998748974062   -1.43998745044298    0.19790144519089
O          -1.73769664254512    0.94562330836388   -0.24272283538645
O          -1.79860119076778   -0.59079318719730   -2.10079023740865
H          -1.52577516943681   -1.52645763312666   -2.30403533215840
O           1.68312167242350    1.63428748897021   -1.43436037994839
H           1.12621472372158    0.82397183757176   -1.47852039169353
O           0.52500462250934    1.79217081950861    2.36741917081141
H           0.13130486181291    2.25040008233605    3.11187770938275
O           2.41641371229740    0.24024750190762    0.79272672811735
H           2.07262713326186    0.75783043358097    1.52777856663613
H           1.64875720102944   -0.18139957102698    0.37144939078791
H           2.38977114122018    1.37667967338535   -0.81514593177721
O          -0.40452829591321   -0.65534017160699    2.29092194710194
H          -1.01878094794914   -0.93162246391641    1.57368611159166
H           0.32293836032265   -1.28185271707371    2.26743475317512
H           0.10648768725213    0.88915671026153    2.34585527679379
O          -0.05081829330848    2.71436933551573    0.02666277521923
H           0.71679857493439    2.39570101370029   -0.62386387394224
H          -0.84536743140496    2.01581437058325   -0.15304638371773
H           0.23522443091876    2.46663854366414    0.96640955232406
N          -0.88768490515756   -3.03644208535796   -1.97807719622878
H          -1.18455910606882   -3.93591207927197   -2.33386054233671
H          -1.19524863917128   -2.94197454318937   -1.01388845255871
H           0.12330351471105   -3.00155330368199   -1.98781579695127
