    26
        -50.45301679  Gyration_radius:  2.45748280785 Dipole_moment: 2.641
 S           1.00596422750373   -0.61475712513792   -0.89519723845125
O           0.92900859979252   -2.02020521153567   -0.54910024430819
O          -0.30651433634840    0.02624275461165   -0.78941428167132
O           1.98931092256880    0.11377970899170   -0.09286463121379
O           1.46742384694156   -0.47447382149651   -2.37293837181949
H           0.81671774848093   -1.04492940931993   -2.86530092376880
O          -0.68962544690333    2.60726543458209   -0.53344332468078
H          -0.55066917519234    1.71904426446338   -0.93405175620342
O           0.19249191929368    0.80262833641134    2.89903643716354
H           0.70495442808030    0.72637231013240    3.70571329239519
O           1.25514284119667    2.19051791373496    1.00015645424776
H           0.83424197083232    1.75721801300300    1.81339515674354
H           1.66417081785583    1.34228798728357    0.48531546109979
H           0.46553054756164    2.50709567811777    0.37552150707326
O          -0.06637720037491   -1.57514509064844    1.83211846677701
H           0.16414775008844   -0.11008117186164    2.50242301789169
H          -0.99424598505405   -1.76205765657940    1.66951270088142
H           0.40191108499737   -1.79755248717551    0.99578528894869
O          -2.09681292219107    0.94363805980483    1.10839427848995
H          -1.57410512202997    0.42515629576275    0.47400271229858
H          -1.60183254605781    0.94202591418996    1.93381003290141
H          -1.47216581990146    2.46961242435771    0.03022871041461
N          -0.44877086460413   -2.12428132908759   -3.02990322195715
H          -0.18692649740586   -2.54452425584953   -2.14221519966375
H          -0.56982500009502   -2.85487797012084   -3.71947634656123
H          -1.33314580903134   -1.64999956661459   -2.90150797701752
