    26
        -50.45301682  Gyration_radius:  2.45746245421 Dipole_moment: 2.637
 S          -0.12758677294964   -1.43301684131725   -0.34651393579168
O          -0.61474043164899   -0.32713267078937    0.48074773502675
O          -0.71863558760538   -1.39381200900416   -1.66942821860729
O           1.33539819011950   -1.43262222068491   -0.37881162847878
O          -0.54200637000385   -2.75317934426615    0.36185207645645
H          -1.53493310420446   -2.74333564176146    0.29018988107089
O           0.59935618685371    0.58227242694559    2.61905270538015
H           0.01815306481203    0.04791837312779    2.03133348606569
O           2.10110484975027    2.01846778949280   -0.77216764888033
H           2.83710016144894    2.20471682770619   -1.35764487116381
O           0.12658753183377    1.03154250307111   -2.18159757709373
H          -0.67567504167602    1.53294856402645   -2.01641186602975
H           1.39742936318695    1.59895961356944   -1.33796235471842
H          -0.12545569186476    0.08499030471794   -2.08801360330724
O          -0.31454999268939    2.40298772047880    0.80400931454518
H           0.45835954526037    2.62894800663367    0.27687337731229
H          -0.57467698984785    1.50499809972730    0.53855626256325
H           0.30970687683780    1.49444370214393    2.43730735383231
O           2.50536585830905    0.21191326305177    1.02594413597622
H           1.80663497814814    0.38756166286253    1.79708501515376
H           2.06356722548333   -0.58339990189846    0.45674301360265
H           2.43807636290195    0.99099128397320    0.38177233030141
N          -3.02468177083342   -2.16978970324067   -0.20548996599457
H          -2.58939038463577   -1.81331572272789   -1.05204894691128
H          -3.30239382276109   -1.37787540295099    0.35954517701413
H          -3.85211423423127   -2.69618067288669   -0.45492123732327
