    26
        -50.45301688  Gyration_radius:  2.45764415056 Dipole_moment: 2.639
 S          -0.11527569455968    0.31491926720462   -1.44104148211776
O           0.97886601470730   -0.43588340287237   -2.02423902998725
O          -0.68859351383759   -0.39424926995095   -0.29512888962334
O           0.27152242622857    1.67170643725101   -1.05253054263190
O          -1.24700750956955    0.47521099807579   -2.49456636845587
H          -1.41987332234338   -0.46222164138141   -2.78184993535445
O          -2.11869137034545    0.73141226147526    1.59202627641556
H          -1.86663397110509    0.28757322005721    0.75047446592418
O           1.79912197390906    1.16625880576152    2.11939436106280
H           2.57431325334138    1.70522989470963    2.28599532569247
O          -0.28206449058509    2.40538777302485    1.22819751283570
H           0.51961378119507    1.98955249260372    1.68714049610989
H          -0.08635492523507    2.18141830133769    0.19699896294264
H          -1.11769577726064    1.80461831688822    1.46196249238336
O          -0.14199228439278   -0.98969778974855    2.34966410471662
H          -0.21323437182091   -0.96675070504522    1.38067735647474
H           0.59926170412854   -0.42110171838078    2.58116437373628
H          -1.76192991823019    0.12868851763388    2.26911586955696
O           2.34704341494266   -0.53715039638632    0.20687413377291
H           1.93058302842635   -0.43975435915058   -0.67924602381531
H           2.03392022609213    0.57318719634677    1.35507447591437
H           2.14292990104304   -1.43044073183633    0.49457882322821
N          -1.16076211444123   -2.11232418391965   -2.84558678674660
H          -1.27964530861966   -2.73943949764051   -3.63078575556810
H          -1.52884341825405   -2.55877825835131   -2.01568329429611
H          -0.16857772341132   -1.94737152771053   -2.69868092217959
