    26
        -50.45301690  Gyration_radius:  2.45765720595 Dipole_moment: 2.641
 S           0.67363157589402   -0.84649492932237   -1.00926934978003
O          -0.12347171785644   -0.80860499978635    0.21869552831995
O          -0.16480680299740   -0.68168047259291   -2.18014613638479
O           1.75253160314709    0.13981562048416   -0.94096795479582
O           1.36522194960347   -2.23755693849460   -1.06478721677609
H           0.60024342088426   -2.86287220025946   -1.18795577371551
O           0.12318694659616    2.97788453020793    0.45211858311182
H           0.39216737387228    3.82049563609745    0.08220987179769
O           0.83516794914655   -0.29069469348002    2.60338717879716
H           0.55976834044803   -0.77665567030380    1.79302098086305
O           2.02635308832982    1.38544680210846    1.16139157846347
H           1.32252830378363    2.09040283086940    0.97687372613121
H           1.61845177575452    0.72048953411812    1.87226194048045
H           2.01735579785431    0.82098039819212    0.24861147401553
O          -1.46034960943651    0.97815338616074    1.85252556991475
H          -1.17159427315751    1.84661066929929    1.55460352096301
H          -1.18610294790621    0.34741855491955    1.16587393025557
H           0.01617903373051    0.16387256391770    2.87110165166240
O          -1.14728978316048    1.61290145822748   -1.38701288833356
H          -2.00198759511428    1.32922017705338   -1.05323037211740
H          -0.30641519223620    2.47426923460209   -0.29154065761550
H          -0.73575860843589    0.81203320688985   -1.78379281611375
N          -0.99496181850473   -3.29357801303165   -1.43788012884132
H          -1.12716810326142   -2.43862277263099   -1.97152731168642
H          -1.52095413494449   -3.20888608359371   -0.57785508160479
H          -1.36192658203734   -4.07434784965198   -1.96670984701750
