    26
        -50.45301657  Gyration_radius:  2.45726174883 Dipole_moment: 2.638
 S          -1.43224640191507   -0.04199700938432   -0.37608568376982
O          -1.38967515779293    0.07934635637202   -1.81986005255114
O          -0.27731137946347   -0.79121060419806    0.12347218356926
O          -1.52365214027818    1.25297101547224    0.29945486130697
O          -2.70555833966605   -0.83298029174554    0.03536643998314
H          -2.63395324018726   -1.66696397009102   -0.50367760261618
O           1.86170433092726    2.34448584467177    0.34808264300386
H           1.98716391314216    3.28202590006700    0.19174306367446
O           0.61249174419496   -0.69508039533658    2.58794368471969
H           0.09932063256794   -0.95745827491032    1.79013764839159
O           2.43645315378578   -0.49926146404375    0.56828229109149
H           1.53557173782578   -0.79907605316060    2.29443969165971
H           1.54952281615522   -0.65971518075261    0.20475093928819
H           2.59953930101797    0.44517238867142    0.48017615768183
O           0.08082533905862    1.71189804557520    2.10538056584109
H          -0.70000057839313    1.54522480785653    1.38804375474080
H           0.32029171552517    0.74248729666350    2.44647631693980
H           0.84549928934167    2.01521228192322    1.51388234981179
O           0.96276673366118    1.23083337863922   -1.84538716252473
H           1.47194659372659    1.97396696104286   -0.48980327800215
H           1.51800715818708    0.48438554436463   -2.08398175431981
H           0.03682257980488    0.90102644428640   -1.89101471381809
N          -1.97707034176437   -2.69398622213783   -1.64705837039852
H          -1.67254420303730   -1.88364917633012   -2.17978020508207
H          -2.45206386764178   -3.33825738688902   -2.26619393125690
H          -1.15385139879176   -3.14940023662354   -1.27478983736529
