    26
        -50.45301672  Gyration_radius:  2.45736298559 Dipole_moment: 2.639
 S          -1.30668687679472    0.55792358408297    0.41641856993839
O          -0.51944756180999   -0.03339084320768   -0.66773572943580
O          -1.82721396802915   -0.46581694611358    1.30071408965562
O          -0.51591110395010    1.56762034310867    1.12112298419959
O          -2.49172250828373    1.32033502763624   -0.23995434011552
H          -3.03578546532253    0.58749928994537   -0.63783920045723
O           2.66391807598183   -0.00063690867023    1.40976890928387
H           3.11539423708705    0.14954553585942    2.24207423552623
O           1.26248164787213    1.25818166907166   -2.09282776444277
H           0.40454876722014    0.88930731929766   -1.78205192449600
O           1.94063392300194   -1.20593901058462   -1.13811054439562
H           1.82134678152026    0.46452873280127   -2.17546269061466
H           2.45425424017372   -1.02521937339620   -0.34449773856333
H           1.01574194465649   -1.00398069868970   -0.91826508816180
O           1.71625035044859    2.09152144756606    0.23260370074693
H           1.61529874662606    1.84684977279286   -0.78901233510119
H           0.72343940251273    1.97390689884867    0.62299195535916
H           2.20606972167205    1.32274030237250    0.67459267863237
O           0.53324599384213   -1.45775111715058    1.85225008743193
H           0.53715612095101   -2.22610140279393    1.27613629332664
H           1.83781954943827   -0.51017188326277    1.63132524735922
H          -0.36411259273926   -1.06336859791728    1.76641030446829
N          -3.46041034639570   -0.99635012883025   -0.96049959637747
H          -4.38525770012153   -1.39373061883554   -1.06356116235821
H          -3.08039514633930   -1.26723327855040   -0.05752280832786
H          -2.86065624321122   -1.38026909538537   -1.67906814307957
