    26
        -50.44772976  Gyration_radius:  2.5129644004 Dipole_moment: 2.773
 S           0.13958367566675   -1.48770886912758   -1.49431575668030
O           1.58735957402056   -1.21452582364095   -1.50208569135537
O          -0.19985770449977   -2.54219942174415   -0.56870405019170
O          -0.63586161451296   -0.28010521123407   -1.32192914261180
O          -0.18085559373202   -2.02857378356594   -2.94514424528571
H           0.29934776770450   -2.84961432888374   -2.93807233086525
O           2.10987669793903    2.58831947414588   -0.68823208001196
H           2.41096540873848    3.35312689590824   -0.19535867212170
O           0.65247499813869    0.39506576849613    2.02343063694093
H           0.95890407782601    0.31970624071047    2.92847027981268
O           2.48203351880184    0.24582848583838    0.24539999833982
H           1.76860250294989    0.25820034057363    0.98153053347644
H           2.11746761527291   -0.42762974178474   -0.53126903700297
H           2.45875969408862    1.18008728588962   -0.17794386718176
O          -1.02466023635244   -1.46632760496987    1.70858152448991
H          -0.71522095285098   -1.98728155589557    0.93769536232475
H          -0.03016794832495   -0.36875919108688    1.90057661313568
H          -1.84588589897234   -1.02374604011615    1.38672954888367
O          -0.35342227145099    2.05051056694904   -0.02468903073732
H          -0.22111504238745    1.66010925519145    0.85038828308962
H           1.12373468855509    2.52199666357507   -0.54794261160955
H          -0.53988776683357    1.28928304115196   -0.60721614548758
N          -2.98455151738294   -0.16269327379483    0.37112066141538
H          -3.21262703676053    0.81037867672371    0.53328797911030
H          -3.83251402938523   -0.63631789878061    0.08705535502631
H          -2.33248260636541   -0.19712995020184   -0.41136411572315
