    26
        -50.45301690  Gyration_radius:  2.45762371967 Dipole_moment: 2.639
 S          -0.25111052054244   -0.95940545471031   -1.09797449360011
O           0.44633144576536   -0.69984860985993    0.16329607342339
O          -1.62082770902534   -1.37009247491421   -0.86098602402863
O          -0.15247793816116    0.20559660668143   -1.97798021052740
O           0.51198098849331   -2.10739098822645   -1.81653986713715
H           0.35074639707314   -2.88963326219030   -1.22212644925275
O           2.61285658696805    0.75807906470350    0.39722116276996
H           2.01655335445618   -0.01205050829847    0.25569290129489
O          -0.72558631748995    2.91491282775640    0.25417970538902
H          -1.25462761636797    3.62935301161002   -0.10480673785129
O           1.22837837932205    2.09303652211822   -1.21797087919051
H           0.68123182182290    1.27589375244597   -1.64740900784135
H           0.52581242824365    2.52902710024550   -0.63254182247334
H           1.91881376272763    1.62246181869193   -0.57315494655323
O          -2.23058639154163    0.78522088324002    0.49639996068632
H          -1.31996303625449    2.11664271248287    0.27963117215747
H          -2.09115471556052    0.00911712542623   -0.09216367460310
H          -2.17606269763071    0.44596686168661    1.39321697832618
O           0.59540323840471    1.18284625035187    2.18361437463628
H           0.12432046362170    1.94889224453412    1.84061088868061
H           0.37356105580112    0.43957125642282    1.59806241766045
H           2.33887142078988    1.08487858793865    1.27314521971200
N          -0.31737634834497   -3.71505033455651    0.06856197058792
H          -0.60147059579341   -4.68497568323726    0.11739654459287
H          -1.14485198941845   -3.12918935273834   -0.00396238369120
H           0.16123455273969   -3.47385995761394    0.92658716688351
