    26
        -50.45301683  Gyration_radius:  2.45756230948 Dipole_moment: 2.639
 S          -0.24069896553461   -1.08453494620686    0.97780573160377
O           0.71611558573713   -0.11619287463316    0.43790121554988
O          -1.12726817489294   -0.46023960636962    1.93968567451966
O          -0.96083488506168   -1.74382052786750   -0.11225917564136
O           0.58227786347360   -2.19759975444386    1.68497161543609
H           0.98879911567662   -1.71856966667576    2.45733391560142
O          -1.67909797645221    0.95587734560197   -2.31387589625023
H          -2.54316902808585    0.92166237694792   -2.72785584409669
O           2.02309457172560   -0.40903526998951   -1.81601591515464
H           1.78176702606601   -0.45915167687470   -0.86311785702277
O          -0.28052870378227   -1.21093238539823   -2.41433157825870
H          -0.57114909784971   -1.55193194755169   -1.43904227815042
H          -0.81854928171123   -0.35735464457857   -2.50504580045712
H           0.72883333739440   -0.92810061943184   -2.29147367013230
O          -1.98644474789588    1.35311184876468    0.25653109477911
H          -1.84432043653710    1.05475196478859   -1.33711401000671
H          -1.78171421658425    0.63530228515956    0.89765727686715
H          -1.46495059513211    2.10958675011094    0.53613005930389
O           0.85038946220918    2.00601202842648   -1.33045989055313
H           1.99689294677587    0.54818235714687   -1.99510622388952
H           0.01975619697536    1.97415171983176   -1.81559967193027
H           0.74212918995425    1.42036828269080   -0.56245646697110
N           1.25517577930642   -0.42724318013725    3.48444904070233
H           0.30239525641506   -0.11554174558921    3.31638975214304
H           1.88197457857289    0.23991937395055    3.05368008397309
H           1.42912521924491   -0.43867749769869    4.48121879805348
