    26
        -50.45301670  Gyration_radius:  2.45741757629 Dipole_moment: 2.641
 S           0.93144478805787   -0.87832188174064    0.74437658751015
O           0.78063986797811    0.31674736313852   -0.08859069363120
O           0.60647210908581   -0.59359030397813    2.12795239214869
O           0.14348591799452   -1.98070716524996    0.19176585657278
O           2.41835190468923   -1.32112705014865    0.64712278324663
H           2.90252338726180   -0.57849270680500    1.10011829366355
O           0.47256009590804    0.29268801789162   -2.69230435019230
H           0.89160579056995    0.30134882932720   -1.80179621168778
O          -2.90537274982250   -0.38210554864815   -0.70506642031948
H          -3.69712824916018   -0.89549760531668   -0.53555640878450
O          -1.00172672467026   -1.60072082742103   -1.95082479081976
H          -0.40360119938752   -0.85475995824281   -2.39742621201583
H          -0.46264018592537   -1.86202812189983   -1.06040375642022
H          -1.81872908691745   -1.13739364715874   -1.57103482496168
O          -1.17838934686998    1.89948441368248   -1.23119916588008
H          -0.52210551230438    1.47780765171586   -0.65152887145230
H          -0.10953338195824    1.07338635359268   -2.66426703770471
H          -1.99032833637469    1.39129311601246   -1.13737711880594
O          -1.80769511401429    0.26396706207075    1.58353953630901
H          -2.49506759437654   -0.20467922486192    0.18447684176912
H          -0.95563026118244   -0.14434505294574    1.85825545117390
H          -1.66694305197480    1.21319350234087    1.62276426180221
N           3.05087556375354    0.84299084398081    1.96698114192800
H           2.17805501738925    0.62805151341174    2.44148936574376
H           2.88980299850781    1.63884360064889    1.36345130776264
H           3.74907335373796    1.09396683661167    2.65508204305708
