    26
        -50.45301672  Gyration_radius:  2.45748145627 Dipole_moment: 2.640
 S          -0.90017564784615   -1.17508508618099   -0.00488321527190
O          -2.15379574013864   -0.61935566807514   -0.47449286513025
O           0.24074009574302   -0.50724240110565   -0.63495163696933
O          -0.77006754122570   -1.12890366245762    1.45201287882585
O          -0.82598395433476   -2.67757582177706   -0.39627261058517
H          -0.99450053372021   -2.66117921584686   -1.37736329940696
O           0.32895854046150    2.20413001353708    2.03001553328373
H          -0.04882588980858    2.62671208361356    2.80323636583769
O           2.68258128419604   -0.50798952799734    0.31984255476861
H           1.87145287713943   -0.77366712948172   -0.17030693448969
O           1.65353392136892    1.86833445457691   -0.53845397778593
H           1.34721812335103    2.30394230391001    0.26327947159813
H           2.84775871841950    0.39387110273091   -0.00945123384639
H           1.02602496438652    1.14778244224074   -0.71609957508141
O           1.29151187504529   -0.16448352892363    2.38259607166245
H           1.00769350252687    0.80636271699234    2.32495011966928
H           0.40818274946704   -0.67250082119471    2.04559844021783
H           1.98784766310682   -0.32923612414461    1.60686550300919
O          -1.56469726324159    1.82457396872287    0.26078957741425
H          -1.88292350396587    0.91514260309190    0.06124842644755
H          -0.43076080039038    2.03227116643158    1.40992681432209
H          -1.30400570101109    2.20111187074025   -0.58334117711665
N          -1.37786831492215   -1.96898603480523   -2.84944483373972
H          -1.96174815216293   -1.29329554492591   -2.36396357281099
H          -1.90139621279204   -2.36765840394701   -3.61808675900481
H          -0.57675504966917   -1.47707575572806   -3.22325005582890
