    26
        -50.44772975  Gyration_radius:  2.5129618354 Dipole_moment: 2.773
 S          -0.07479143465358    1.84089316702487    1.03504108465060
O           0.82488619191900    2.36026341424735   -0.00974653447879
O          -1.46256756992291    2.04976085790550    0.69681682640440
O           0.24564949258848    0.47772540298424    1.39340510483929
O           0.22631009477753    2.72703862938612    2.30948110232520
H          -0.08468749662143    3.57552448679880    2.01264594791466
O          -0.55658647559208   -0.86553731373242   -1.90186920751827
H          -0.96533518131502   -1.05724987232389   -2.74735046276811
O           3.14377536494626   -0.57863196322633   -1.18591961902182
H           3.52128116585816   -1.21782557354208   -1.79207224653496
O           1.19811175272939   -1.69539871600185    0.14244772253102
H           0.51158795695705   -1.72526260885576   -0.53834534190284
H           2.53421215228310   -1.08146042507066   -0.57587629521413
H           0.93002804620908   -0.96222543370773    0.72910262773327
O          -2.43997891694343   -0.17073244523152   -0.36993628041436
H          -2.19805922203583    0.71296482252601   -0.02070269670248
H          -1.33027025280025   -0.58049739244567   -1.28164886958928
H          -2.37051218938346   -0.76698801214522    0.41335099612467
O           1.24920013693071    0.94195621175656   -1.95786136111700
H           0.49057643592650    0.25240081218926   -1.96300970163987
H           1.06077380587134    1.60697716284721   -1.11409946105204
H           2.09528227052167    0.42027466572291   -1.70372217663577
N          -1.78937418798363   -1.52654347363736    1.88127717186241
H          -1.04955336139473   -0.83048772878784    1.96391371166729
H          -1.34849086075797   -2.43796852200439    1.87066736253818
H          -2.36146772809483   -1.46897016239497    2.71401060595741
