    26
        -50.45381422  Gyration_radius:  2.64816907171 Dipole_moment: 1.727
 S           0.78165900735485   -0.11494600507868    0.14042471011772
O           1.57064800257411   -0.63345474525930    1.33144808604262
O           0.87744011342649    1.31580482995288    0.06015517197694
O           1.48087512623311   -0.73152614301153   -1.06495980163511
O          -0.57950230808740   -0.61786985075316    0.21163753754326
O          -0.81599236655678   -1.40702638765394   -3.74675658788977
H          -0.90166260154979   -0.52847595434738   -3.29398813547873
H          -0.09671838199814   -1.31979471886629   -4.37440020389189
O          -1.72673964906328   -0.20223714454273    2.59652804475508
H          -2.12093541958765   -1.03309478910406    2.86852302320501
H          -1.41622731028473   -0.32870351717712    1.67864201900458
O           1.07232281972304    2.82583216575244    2.26321801345676
H           0.94517208350014    2.40347705220670    1.39121069512595
H           1.94684258902396    3.21892314624032    2.24643287034982
O           0.72792262467829    0.45000706609808    3.39655519613663
H           1.25638838376779   -0.20036465783576    2.26550079055727
H           0.84312667830888    1.40386847863232    3.17240094171500
H          -0.23550314831123    0.26956931444090    3.30605244427734
O          -0.03700178995793   -2.65212232726198   -1.56138390675943
H           0.97545490936731   -1.60949309108096   -1.30015574750449
H          -0.66258031643055   -2.32869110438570   -0.90005616026300
H          -0.38887746759760   -2.34648910540353   -2.43997041097596
N          -0.87908115380824    0.85285230573780   -2.27580916206351
H          -1.17555116136112    0.45331958683832   -1.39087839749158
H          -1.48999874949183    1.63605291317375   -2.47604633186632
H           0.04851948615281    1.22458269268221   -2.10432470844700
