    26
        -50.45567460  Gyration_radius:  2.46071604556 Dipole_moment: 5.089
 S           0.55213968438267   -1.86620181751722   -0.06307367423413
O          -0.26623252687479   -0.84689573033783   -0.67270108798578
O           1.23910932868519   -1.26755125353600    1.18056679292861
O          -0.14971501801932   -3.06135608396523    0.29254582884136
O           1.72027963266435   -2.20010539617130   -0.99520860093312
H           2.17027307264147   -1.27284917044648   -1.17125190647284
O           0.74082839615864    2.32925270430308   -0.86899540622892
H           0.73013522044606    3.28444438759465   -0.94551023772299
O          -2.20499676975324    0.64148334163282    1.50138706249469
H          -2.66181634581780    0.73079266158047    2.33947929332041
O           0.46091804442642    1.09908902648272    1.54673815223786
H           0.94263395806956   -0.29345967169154    1.35879014611350
H           0.64611098525196    1.57013310416890    0.70928480907196
H          -0.51255861181993    0.97669968837428    1.57046566741717
O          -2.50722657710664   -1.92274118233788    0.85737889790462
H          -2.92545849467081   -1.96660459756015   -0.00549238138414
H          -1.67104789442635   -2.41972908651145    0.76099425636061
H          -2.28211286933170   -0.31302752671730    1.25204035652903
O          -1.68125182477445    1.35135257941127   -1.17379210654807
H          -0.17814026540729    2.01957905144456   -1.09464953101283
H          -1.28704258129006    0.46278864371436   -1.20991236188804
H          -2.09080245716031    1.38302820716842   -0.29816106720459
N           2.71234690868940    0.14645875173902   -1.22489839698525
H           3.30727031526113    0.31667874913880   -2.02531253189152
H           3.24934367484512    0.30093267261183   -0.38090133576856
H           1.94701302492970    0.81780795741841   -1.23981063696686
