    26
        -50.45567462  Gyration_radius:  2.4607345967 Dipole_moment: 5.089
 S           1.25972001051525    0.88790498341159   -1.19001368046810
O           0.71333220555180    0.84280089311935    0.14404592026730
O           0.52076068439929   -0.14842135355865   -2.06002157627420
O           1.20904759125367    2.17541401582494   -1.81234769066137
O           2.70184270380778    0.37363157235620   -1.16254087069686
H           2.62109782973769   -0.56768965276557   -0.71455890812025
O          -0.13617258343918   -2.03976101624836    1.59694642907671
H          -0.55573326934734   -2.67896515115455    2.17468373856141
O          -2.55428297988783    0.99170878551018    0.14493258748278
H          -3.41555415760829    1.17193962442678   -0.23554298190997
O          -1.04430280939509    3.03455364073875   -0.64721989555422
H          -0.67889405806859    3.45606084119004    0.13391981103281
H          -0.26931598480975    2.78282718393049   -1.18717508220047
H          -1.96596711971542    1.72775860899329   -0.15732869643773
O          -0.81337158166984    0.40756517045432    2.28079468244757
H          -0.34931098649517   -1.14180880243845    1.97050113047085
H          -0.13585984983764    0.73647911423356    1.66513988089331
H          -1.64516943016605    0.58927896280606    1.82191710800184
O          -1.31325353794174   -1.24745683475110   -0.72988741038576
H          -0.23929282463648   -0.62077507439456   -1.54260455209162
H          -0.87756444675161   -1.61631116364240    0.06485592172498
H          -1.81493350449874   -0.46457657709758   -0.41598871112984
N           2.27042443370116   -1.92554304726207   -0.12773960895269
H           1.52438382826089   -1.83291187598638    0.55892793428712
H           3.05724753927196   -2.38687351189985    0.31008138961137
H           1.93112229776347   -2.50682933579691   -0.88377685895819
