    26
        -50.45567463  Gyration_radius:  2.46074013265 Dipole_moment: 5.089
 S           1.64410451727871    0.57866825544477   -0.86814082104655
O           1.96051451551341    0.53111091647902    0.63999278698385
O           0.25770888709093    0.22972554894650   -1.05917997339051
O           2.01932438310157    1.84971623813878   -1.40767568112021
O           2.52804685880583   -0.52420074413059   -1.45742013920716
H           2.18836605596554   -1.39323931259763   -0.98570112423344
O          -1.72442270550034    1.93014490667085    0.91022947877080
H          -1.95368663510486    2.65073436410313    1.49948638924298
O          -1.21024441533437   -2.17486907058558    0.73202588480218
H          -1.87814455290681   -2.70716626205137    1.16669018487036
O          -2.33088263971035   -0.28788904049926   -0.71661248180873
H          -2.48067445277499    0.45379505017533   -0.11416475987224
H          -1.45575269454642   -0.09999126858569   -1.09752296949008
H          -1.69761870239728   -1.55294950344489    0.12619542106298
O          -0.32503172075246    3.08958777845088   -1.03351954594195
H           0.58891773317101    2.75704594029619   -1.13139789600858
H          -0.75417777199857    2.89178561784778   -1.86902170687895
H          -1.18010736589835    2.33366270480589    0.18898897255741
O          -0.12668259443775    0.00985998130925    1.94852042563982
H          -0.46975185993331   -0.82719250390429    1.57547830394154
H           1.12351571745863    0.31682399224788    1.20748688620106
H          -0.73284315170384    0.71061380407654    1.62490335056144
N           1.60421605389270   -2.50753149556269   -0.13204640466797
H           2.04016883488160   -2.45464989058704    0.77992595672532
H           1.76303535998687   -3.42996539586108   -0.51604951390390
H           0.60210236585496   -2.37363062118209   -0.01147100378668
