    26
        -50.45567461  Gyration_radius:  2.46073702104 Dipole_moment: 5.086
 S           0.68696390335475   -1.04404701265334    1.49328218735516
O          -0.74180765861362   -0.62726992295689    1.89529279383181
O           0.98839481011030   -0.47123089645367    0.20435345127107
O           1.60897193137643   -0.69675549254300    2.53096766780597
O           0.59489291734392   -2.56684094948311    1.35990128149368
H          -0.11059962159643   -2.70722304554012    0.60140327181063
O          -1.29407183882860   -0.31560201002824   -2.22657232170862
H          -1.76654097327543   -0.04604087532665   -3.01553917201076
O           0.30320536543840    2.72511576241835    0.08566523753219
H           0.11239613553078    3.58686283557081    0.45983397372612
O           2.23406240935782    1.74837131543164    1.63437232590172
H           2.00840194134092    0.91252685044338    2.08818954936802
H           2.98566531476506    1.53539185822502    1.07658748140250
H           1.00390204248134    2.32955351014674    0.66170075845023
O          -1.71251068358258    0.92278898930899    0.16469007770013
H          -1.64924163540025    0.44219537235147   -0.68534205953997
H          -1.17150785801735    0.00933967566116    1.20328733072778
H          -1.02187611341990    1.61903578876125    0.12586977608660
O           0.98214717904623    0.98566639659248   -2.02354291679599
H           0.77217664165064    1.81608632419744   -1.57433635087186
H           1.22640570245700    0.38758984397007   -1.29629270792203
H          -0.40594373248227    0.13282751038633   -2.26457474383770
N          -1.20914910875702   -2.68572979416485   -0.45004781367238
H          -1.06536914043835   -1.91303420471308   -1.09728071711637
H          -2.08792771600722   -2.53480697836898    0.02907517959914
H          -1.27104020383034   -3.54477087123213   -0.98094355058568
