    26
        -50.44772980  Gyration_radius:  2.51297333767 Dipole_moment: 2.774
 S           0.49488966451610   -1.99744592779182   -0.48065718590452
O           1.80733581041760   -1.72247015520059    0.12974600219621
O          -0.44049062205093   -2.52961459472436    0.48149908805210
O          -0.00403114074671   -0.86063231021036   -1.22098325838239
O           0.76846304504808   -3.14148551220524   -1.53728338860791
H           1.00976235142947   -3.85962197813012   -0.96214491031761
O           2.67667724561348    2.05048544239848   -0.50592230576355
H           2.87037996276468    2.96229571735339   -0.28312915928447
O          -0.27842368511305    1.27939655234319    1.72089663469827
H          -0.44279101078077    1.62720094618127    2.59878654795248
O           0.13148531331772    1.81031855955371   -1.01733981006460
H           1.74597849255982    2.03082496169756   -0.86640751044157
H           0.07845386468751    0.86411985587283   -1.25288337029852
H          -0.23516654981738    1.85915072705272   -0.12356060232133
O          -1.97151199726218   -0.56351552344612    1.38377493585241
H          -2.44279818706758   -0.33298967692113    0.54794853453445
H          -1.45964646182496   -1.36828799331969    1.15628510186590
H          -0.97125804307588    0.52607918523535    1.59019652003951
O           2.08557190494026    0.38896508981636    1.33446091602155
H           1.13464955572517    0.71450739885675    1.53644318205306
H           1.98545447339394   -0.57043376239835    0.82543873974600
H           2.45291370661629    1.03171506920051    0.62412419563321
N          -2.78475369700894   -0.04902944525230   -1.14671258213098
H          -3.48657745190237   -0.61995264876702   -1.60006584660159
H          -1.87030127053673   -0.41661191273664   -1.40617086302513
H          -2.85426528386359    0.88703193552240   -1.52633962537089
