    26
        -50.45567462  Gyration_radius:  2.4607545613 Dipole_moment: 5.089
 S           1.54265456743326   -0.89150844643412   -0.78544978962658
O           0.10748956434358   -0.75104355616733   -0.81574580105829
O           2.09724873254155   -0.03233060364127    0.36828682908835
O           2.00781582439973   -2.23889903391505   -0.66045196907295
O           2.13986510949421   -0.24325094006627   -2.03766718028444
H           1.75813800305489    0.72991641219104   -2.01952571797969
O          -1.38142161713449    2.18204389531867   -0.24552647198119
H          -2.03878172754846    2.83891762657049   -0.01153110661397
O          -1.23855067578512   -1.20622341914714    2.13046884413698
H          -1.25543790681764   -1.50770695723609    3.04032469672726
O           0.20554640004423    1.02957088575477    1.64665919919413
H           1.34504457040042    0.42077474311317    0.91366076608461
H          -0.31661717282460    1.52364312105697    0.98277271071676
H          -0.33462686821824    0.24237497465614    1.87416813026552
O          -0.02803936925534   -3.17262403374483    0.80809247780156
H          -0.76893622624168   -1.91236538721045    1.62046029784981
H          -0.61610023376673   -3.46885905196580    0.10967924517517
H           0.79627689343931   -2.91019027849025    0.35299461206086
O          -2.43460948430422   -0.22739830350176   -0.22440715651517
H          -1.61786195036508   -0.55717963468255   -0.63721211015037
H          -2.36832671104777   -0.53658078126929    0.68964359030675
H          -1.86508823583862    1.31482067312574   -0.31865710862017
N           1.16559850369320    2.10534979074848   -1.75732010092920
H           1.75174289263709    2.56532293032682   -1.07220266837853
H           0.22968114130246    2.01940609176987   -1.36572757975836
H           1.11729597634201    2.68401929284383   -2.58578661844822
