    26
        -50.45567460  Gyration_radius:  2.46072362266 Dipole_moment: 5.089
 S          -0.57970134303955    1.81292635909677   -0.41094150264037
O          -0.43179892095663    0.46905035252068   -0.91344355243986
O           0.00081161995046    1.87158906047121    1.01612818275757
O           0.02065556154731    2.82418626094787   -1.22604032126387
O          -2.06711350771677    2.11525061366865   -0.20835700618606
H          -2.39625161638656    1.33871497132232    0.40968722123450
O           2.61031996202535   -0.66691285313972   -0.51848803797465
H           3.55205837966502   -0.58931195718909   -0.35682951099117
O          -0.90876066427110   -2.19747948474245    1.03691483173818
H          -0.86759309582473   -3.08908750492478    1.38580388091376
O           1.00535726876102   -0.35253420163744    1.63642713497336
H           0.29045539432137   -1.00887659948719    1.51140965337788
H           1.62674689991113   -0.49423689193870    0.89010851636550
H           0.42038747731978    0.97170539214670    1.30373884966028
O           2.05581530826864    1.35391960707938   -2.15861397770041
H           1.65250192428018    0.99321173094609   -2.95144554518725
H           1.40475577743129    1.99432112214487   -1.81006742384417
H           2.37407743687209    0.09152723508945   -1.10854514418512
O           0.29172290931269   -2.06346941700460   -1.29893147265123
H          -0.07188749001809   -1.16718327447385   -1.40240421332713
H           1.22689907821513   -1.90879442001595   -1.10665280502776
H          -0.53181154020814   -2.23889460184247    0.11629438363344
N          -2.64137682307190    0.18320676996370    1.36661568317989
H          -2.31656053910916    0.46967363929615    2.28148380363095
H          -2.10365621532067   -0.63308121150237    1.08168399859221
H          -3.61605324220421   -0.07942065711335    1.43446439370255
