    26
        -50.45567465  Gyration_radius:  2.46070024261 Dipole_moment: 5.087
 S          -1.08908641667028   -0.56837247865047   -1.51052269304426
O          -1.75911964114972    0.70964430398197   -0.96791075926398
O           0.04559750536859   -0.88285220424781   -0.67754430590857
O          -2.05509107223060   -1.61791529986791   -1.62389716745268
O          -0.59613300298619   -0.15527388384439   -2.90029040677921
H           0.07714772787453    0.62016474653395   -2.70425437520883
O           2.05184377788263    1.49745701781593    0.52782076860636
H           2.68351562024626    1.96301444125326    1.07793641891386
O          -0.71630967225401   -0.86498707538115    2.50309041192012
H          -1.31308525235963   -0.88478104473676    3.25310622753956
O           1.82573666060976   -1.00686944751300    1.29770640083169
H           1.16252624514249   -1.00777913592559    2.00170042951539
H           1.30594159851047   -1.17745585264484    0.49338360558089
H           2.09083995994983    0.54150372323850    0.80343637226492
O          -0.60423280822097    1.46726364344056    1.13728359828511
H          -0.65071205575741    0.65262792624915    1.68269539588329
H           0.33903002813026    1.56980630965797    0.89804685568107
H          -1.30689614291264    1.04952128958473   -0.10256042320041
O          -1.71774802329582   -2.66463226518444    0.81820231117612
H          -1.97592117597814   -2.30627779632730   -0.05385296417957
H          -1.03381370883456   -3.31145708626096    0.63055128358833
H          -1.08291097178113   -1.51082242490067    1.84903275929426
N           0.94137075726499    1.76773048735012   -2.20603101361885
H           1.65569115344953    2.04610229200365   -2.86623018080249
H           1.39046321814421    1.51773374681153   -1.32711663414012
H           0.33135571185031    2.55690604756462   -2.03378193548339
