    26
        -50.45567461  Gyration_radius:  2.46073251827 Dipole_moment: 5.089
 S           1.67414331892076   -0.82450270304954   -0.55587066661748
O           1.79526169280653   -0.61468266402763    0.96671770859482
O           0.40649963509982   -0.29435329956658   -0.99448553697823
O           2.81442516182761   -0.27004908080890   -1.21905748699994
O           1.66499144092010   -2.34792076631716   -0.71080238454921
H           0.81611775762814   -2.64648953144408   -0.17824144645709
O          -2.37153529063317   -0.65845609202768    0.82002917932714
H          -3.24903463650811   -0.51890461788702    1.17906566658980
O          -0.11160618829682    2.73895454934938    0.11501200494459
H           0.14698139640483    3.58158494329427    0.49204875301137
O          -0.20423951020311    0.64903244685675    1.83023658633659
H          -0.19121469128654    1.44183451783054    1.25188446212024
H          -0.98527169513245    0.13115856309620    1.54863675114669
H           0.98755291858128   -0.09938587668063    1.35480794000901
O           1.81642089277466    2.18081392598271   -1.63214101573553
H           2.30033744887905    1.35061143411865   -1.45308610511847
H           1.41173968984567    2.05401129105684   -2.49325650826440
H           0.60542386985983    2.49682677882869   -0.52252048576992
O          -1.91418259000054    0.99756565791118   -1.17089835475930
H          -1.10555662361145    0.49360407421942   -1.36686820428017
H          -2.30282345498931   -0.07820276199368    0.01385386746035
H          -1.58269551021522    1.81131105140161   -0.76668977846534
N          -0.39944447547777   -2.86671377536515    0.70766894249227
H          -1.08063841876491   -2.12336261169239    0.56598328494015
H          -0.08765959420240   -2.82790934448052    1.66988037998205
H          -0.85399254424099   -3.75637610861800    0.54809245705252
