    26
        -50.45567463  Gyration_radius:  2.46074092022 Dipole_moment: 5.088
 S          -0.83320442236444   -1.69594954699411   -0.47005428759273
O          -0.61511038670794   -0.32712439837688   -0.86896948122828
O          -0.19985347835802   -1.91082752850869    0.91902909116815
O          -2.20560648439730   -2.10041138864750   -0.45072134272476
O          -0.02486846788725   -2.62263314115474   -1.38264154189862
H           0.95133116728649   -2.25616458169874   -1.30665110253790
O           2.26188228089171    1.24654304726681   -0.24502512181003
H           2.90587810816338    1.93981355657769   -0.09330573045995
O          -1.46536830091124    1.79058627940972    1.47439524488049
H          -1.90729959441858    2.06241766475691    2.28051840743645
O          -0.06203254234096    2.27622310883163   -0.91923850921800
H          -0.36337341537603    1.37833378831449   -1.14113856612838
H          -0.51633064137296    2.46954698451806   -0.08754574147408
H           1.44380986013897    1.69496838782528   -0.59289111945384
O           0.74094616898178    0.25699582932519    1.78835464619073
H           1.36116525301579    0.57036634522562    1.09942290901420
H          -0.04336306149063    0.84336860317673    1.72327525727499
H           0.19873441705274   -1.03863681616832    1.30500407940793
O          -3.25524263403629    0.26944743704117    0.22391446649714
H          -2.10423789699140    1.20102526997032    1.00165335188089
H          -3.40528432080613    0.64072390606105   -0.64843723725612
H          -2.96652097290935   -0.65051180134927    0.06329784634201
N           2.29598812142337   -1.62115163960344   -0.98957869181403
H           2.19726487291591   -0.61262592103050   -0.89062804056996
H           3.00168391651397   -1.80962527285310   -1.68960330420560
H           2.60901244398486   -1.99469820191106   -0.10243548172088
