    26
        -50.45567460  Gyration_radius:  2.46072708133 Dipole_moment: 5.089
 S           0.61246706512457    1.11708767944745    1.47269169156696
O           0.68778322949855    0.87449200973327    0.05289609408635
O          -0.26653319659888    0.02419693657217    2.11296195000696
O           1.87904838448526    1.17795824947406    2.13565286797263
O          -0.17469751161212    2.40642294553573    1.72345532386110
H          -1.07749025512374    2.24773019827689    1.22044307308543
O          -1.95775110525549   -0.17033774620234   -1.69343595820450
H          -2.49668926127003   -0.56798075304178   -2.37885277484751
O           1.47406208736573   -2.22734734867201   -0.62756309886644
H           1.81557736546334   -3.10056223770556   -0.42771592425209
O           0.58135795628114   -0.20794210247423   -2.37676863257970
H           0.91786576435303   -1.06958340601529   -2.09425658549654
H          -1.03180603960666   -0.12370144198048   -2.05641383337756
H           0.76515454930548    0.37002931889452   -1.61623384077982
O          -0.97321293298886   -1.65162479084313    0.37142841766336
H          -1.41237600468752   -1.13193471139185   -0.33184020630305
H          -0.10424869630314   -1.91626371363524   -0.00014619505820
H          -0.57630593474771   -0.68070893752946    1.42327991590850
O           3.17396358908730   -0.56594464211812    0.56877803543374
H           3.52335320599031    0.03281545595468   -0.09516732048124
H           2.77016549089032    0.01185381689561    1.24597736661051
H           2.07767878076875   -1.59007323171442   -0.17066886316085
N          -2.33449636896279    1.78184126845634    0.50336472279454
H          -2.09064412087579    1.23407676868954   -0.31952133599421
H          -2.93704005352344    2.54285695501321    0.21811146444269
H          -2.84518598704153    1.18264346036520    1.13954364596721
