    26
        -50.45567460  Gyration_radius:  2.46078445569 Dipole_moment: 5.090
 S          -1.77661136810193   -0.10658978096389   -0.78917262460011
O          -0.89534439223876   -0.62004130325884    0.23070635392591
O          -0.99520249545591    0.90416041245102   -1.65205266762718
O          -2.37097470246415   -1.10623857395938   -1.62276706184734
O          -2.86618302503756    0.74592394244498   -0.13254930816562
H          -2.32955905310604    1.44685836260398    0.42746262530829
O           1.30775940699171    1.33958173022598    1.79563039488721
H           2.07341167043534    1.63374432811750    2.29120554866276
O           1.95541624702832   -1.64254500751877   -1.00410781232409
H           2.54736829525306   -1.92428880109440   -1.70356248069943
O           1.22640479788186   -1.28697611302714    1.69349087562103
H           0.33087064981054   -1.21617051510399    1.32032260857781
H           1.77003291532033   -1.53890271516993    0.93424270876282
H           1.28148358015180    0.34806359129715    1.88257821652189
O           1.40813537939637    1.00475688636247   -0.90762973195296
H           1.66210718583054    0.05808766914372   -0.95873017583289
H          -0.00277197364282    0.97162045105249   -1.37097617162856
H           1.37954500002372    1.21804782002380    0.04685061020008
O          -0.34572924931589   -2.85766149451272   -1.55998045599136
H          -1.09767265213307   -2.25314692607874   -1.71688775924182
H           1.08212492234240   -2.06317357505006   -1.20336013769168
H          -0.59954284921041   -3.37972071971340   -0.79557338754704
N          -1.36386109883150    2.41266406922177    1.09600266325900
H          -1.77354228878764    2.91043869782690    1.87566039911512
H          -1.07012179020372    3.08460085500733    0.39836995081493
H          -0.53754310193665    1.91690671967370    1.42482681949321
