    26
        -50.45567461  Gyration_radius:  2.46074934574 Dipole_moment: 5.089
 S          -1.29875845179997   -1.12037621056737   -0.92168632423220
O          -1.26637252332819   -1.62667543084752    0.53417135853206
O          -0.33423326854449   -0.05708104785207   -1.06114934775666
O          -1.11531957701890   -2.21467900903889   -1.82518478712247
O          -2.70980021519407   -0.54495517772485   -1.07253034864993
H          -2.74262722859939    0.22133295081756   -0.36199273471141
O           0.12688873418230    2.22073916396008    1.33525997816429
H           0.52818927156091    2.89619228424671    1.88397440223798
O           2.59373760522540   -0.88307570326421    0.14059346095910
H           3.26442246796607   -1.49410893235061    0.45021858960567
O           0.53001717560994   -0.42877468215695    1.82968709809691
H           1.31458676872395   -0.59624885000637    1.26434181397709
H           0.33436859640347    0.52498767534779    1.73178492944574
H          -0.53934010881880   -1.15273613019043    1.09577729949349
O           1.55377544967699   -2.07659808962860   -1.99838822105124
H           1.64250627145904   -1.48065662022822   -2.74562433019181
H           2.17358694612862   -1.31746429786471   -0.64299516622588
H           0.59668190544606   -2.26474025956073   -1.93459721405236
O           1.68193675671581    1.64429298096144   -0.70554299644355
H           0.71177380973772    2.12525185903214    0.53519393734254
H           2.29818134817682    0.97082299210592   -0.38596281064849
H           0.94972345468384    1.12498642761096   -1.08029490297886
N          -2.60534070962499    1.22003562357258    0.77611606794046
H          -3.27045884863057    1.98050991350868    0.72276746236394
H          -1.66529344791507    1.61078081036912    0.79334982130783
H          -2.75283217218944    0.71823772977922    1.64271296461306
