    26
        -50.45567463  Gyration_radius:  2.46075080153 Dipole_moment: 5.091
 S           0.70640445027262   -1.81038051873324    0.12149777421239
O           0.62806537059881   -1.29275590971850    1.57157336991736
O           0.28031113802930   -0.75732310398227   -0.76723508331947
O           2.01516477584262   -2.32346970144568   -0.14559463335293
O          -0.32039713017171   -2.94593810903457    0.08753904310672
H          -1.22371517594676   -2.47082794501965    0.31405470373844
O           1.79049513127081    2.07441243727215   -0.13715296177578
H           2.47605474013867    2.62747262694395    0.24123179445824
O          -2.26752542915760    1.26036456361901   -0.00289049142487
H          -2.85393829622538    2.01801210065466    0.01855761181861
O           3.09644575338146   -0.05123431009513   -1.06285211683158
H           2.24991192878247    1.26251723784254   -0.46737049123432
H           2.82385976462963   -0.90150592059898   -0.66509827179131
H           2.89970730802947   -0.13806167434282   -1.99829897884772
O          -0.40567454392008    1.58419014012245   -1.83142116834570
H           0.30518940318889    2.07821732441466   -1.40004401036921
H          -0.15229826914067    0.65463599586732   -1.69731829973786
H          -1.65679151846417    1.40012500700316   -0.77674012303993
O          -0.06197072926880    1.12873402048719    1.59264078838277
H           0.34461753367799   -0.29964259056346    1.61649496805450
H           0.61083170755953    1.52239465909058    0.99633859263957
H          -0.90565643413800    1.16679887407451    1.09847934864815
N          -2.39961349386360   -1.60522760080139    0.73817836362896
H          -2.35169731845302   -1.49512882100214    1.74322842076356
H          -3.29710961037059   -2.00489874428891    0.49668102624407
H          -2.33067106628082   -0.68148002776717    0.31552083445518
