    26
        -50.45567461  Gyration_radius:  2.46072645394 Dipole_moment: 5.088
 S           0.70559709150595   -0.83995426256668    1.60878266460160
O           0.21039400821970   -1.05945687805666    0.27201638850807
O           0.58781882774697    0.66180018945594    1.93708829229899
O           0.05558145464664   -1.61515183294073    2.62071224472497
O           2.21470812607559   -1.09838979648721    1.63684745685948
H           2.58734158361858   -0.47515916675011    0.88462794308283
O          -2.71742418146665    0.32098336927572   -0.20030318702728
H          -3.54599562291619    0.71612530128578    0.07607708999985
O           0.82296931927733    1.09423828022823   -2.20336156495255
H           0.74902225293665    1.58088108059067   -3.02559949446851
O          -2.36557768053109   -1.71247013634428    1.47970817765275
H          -1.55000934319721   -1.66118823677795    2.01607658827426
H          -2.55137519122638   -0.42554457009760    0.42766656629419
H          -2.27453373996852   -2.51546384586673    0.96174440570051
O          -0.97690166746137   -0.82018930288984   -2.09840695412086
H           0.18982146289557    0.32895402820007   -2.27255276019717
H          -0.52596966688496   -1.16172570977799   -1.30704000946238
H          -1.77810366297010   -0.41002944050999   -1.74440369528944
O          -0.52025570326606    1.88180947894108    0.03333513409015
H           0.13791909580986    1.19377085051749    1.17345881120778
H           0.01563545888114    1.67612438686153   -0.75914207525502
H          -1.34811561380665    1.36428567524253   -0.06683293341850
N           2.92208643253067    0.55391954487044   -0.18337869867873
H           2.93001367042970    1.46371985250798    0.26019483286256
H           2.20482374354380    0.56093503820185   -0.90598096401706
H           3.82052955558256    0.39717611288085   -0.62133423927798
