    26
        -50.45567460  Gyration_radius:  2.46071173818 Dipole_moment: 5.087
 S           0.79649833763629   -1.35010647419220    1.15527150564240
O           0.51522390690284    0.05436640673605    0.98580780514940
O           0.32978545523690   -2.10150141074696   -0.10743334161909
O           2.16752991979324   -1.65539038247415    1.42840965980625
O          -0.09836781388558   -1.91414147113054    2.26256887732949
H          -1.06418258244929   -1.65680398374465    1.95603026356901
O          -2.29141195645850    1.12131286797146   -0.47166999053545
H          -2.92254284126222    1.67136139803774   -0.93803653729524
O           1.59997204988698    1.19079713081665   -1.88375655536877
H           2.12744215567889    1.16666566032269   -2.68392488122063
O          -0.53517242764195   -0.46897214089925   -1.81823736711506
H          -1.23413020326074    0.04361882565639   -1.36411259965688
H           0.22865056497579    0.14185429442583   -1.89995210265675
H          -0.03405841117512   -1.45920572935599   -0.83116337116036
O           3.25525183670000    0.34709467211400    0.02130002080620
H           2.96251243319102   -0.46134603723497    0.48631859697683
H           2.18851358269190    0.85622464219537   -1.16201716633639
H           3.29947335306094    1.02434227765435    0.70013605931218
O          -0.07367402363915    2.45463770298486   -0.00304563156297
H           0.21203953811517    1.72189444662404    0.56940593050846
H           0.47000927581030    2.34912875993080   -0.79594573833344
H          -1.52454562741072    1.71141580410222   -0.23718921447330
N          -2.37199233836235   -1.26086413728422    1.28894118799918
H          -2.57582380707578   -1.95410272215952    0.58011177200173
H          -2.27610930058180   -0.35750225951536    0.82921648844090
H          -3.15089106646889   -1.21477814083023    1.93296632979538
