    26
        -50.45567463  Gyration_radius:  2.46075593295 Dipole_moment: 5.089
 S          -1.06344537409340    0.50748438417717    1.55004285588505
O          -1.67460518134674   -0.81112964472687    1.03576062073367
O           0.01736189177954    0.88702383754106    0.67361726975178
O          -2.08662680711729    1.49678451505859    1.69833944729608
O          -0.49362453026477    0.13105002281003    2.92064379317944
H           0.21801817880056   -0.60246648054314    2.70047534269878
O           2.11778956476120   -1.37234485652647   -0.60336644868900
H           2.75552331519504   -1.80087301072893   -1.17611308577192
O          -0.86307918782166    0.80891174171680   -2.47541228916000
H          -1.48817839986815    0.78928077619172   -3.20199503518254
O          -1.90729656393533    2.55159239709700   -0.75691240282202
H          -1.24306573222179    1.43404169987344   -1.80901490380291
H          -2.10978085250292    2.18194673290790    0.12507789618887
H          -1.25728834425943    3.23946165545200   -0.59674029428476
O           1.70978708116084    1.11019107710336   -1.36889863599612
H           2.08778563464481   -0.41702119213990   -0.88216936872932
H           1.02142942258683    1.06785413378077   -2.04699393022074
H           1.21153196121416    1.25225526277162   -0.54561225471092
O          -0.55655253448646   -1.50633049074599   -1.11044709360742
H          -0.67349633091483   -0.69837555335703   -1.65523951456667
H           0.39966484395688   -1.55035462921775   -0.90748069615933
H          -1.23562717552232   -1.12672994863130    0.15450947535526
N           1.13160768271170   -1.69709340142967    2.17200734683087
H           0.56530408877106   -2.52315738871529    2.02537001080508
H           1.88656585247041   -1.92777935613861    2.80478156242590
H           1.53029747622284   -1.42422230351542    1.27577032255836
