    26
        -50.45091307  Gyration_radius:  2.45435550551 Dipole_moment: 4.334
 S           0.92392011800602   -1.31201385333771   -0.94380967298402
O           1.70319044710247   -0.46883771824067   -0.06928771619105
O           0.43879474364313   -2.53861922553119   -0.36807111131482
O          -0.14592861377670   -0.52212644185794   -1.58209564706031
O           1.89340622788005   -1.74143248371302   -2.12963999914805
H           1.60636512832712   -2.63117187711537   -2.30579821162988
O           2.33989102994625    2.14511654145033   -0.31789336037124
H           2.60473029217454    1.26190020286102   -0.61474138636887
O          -0.80718354431247    1.19927733299515    1.72624854376825
H          -1.63294845307635    1.52370407590005    2.08905251883914
O           1.97851586474362    1.19168822000473    2.11380464209323
H           1.03853494046521    1.30592930936972    2.30547922009774
H           2.03002811168325    0.36070849374133    1.61768601444059
H           2.34920431089682    2.05411306115458    0.66919602806290
O          -1.24441217602884   -1.28111552285422    1.28566283823402
H          -1.99552232298548   -1.23560721010582    0.65224346824835
H          -0.56992978940079   -1.81217812600132    0.82392569509748
H          -0.92365358048374    0.19862241775731    1.61624185732556
O          -0.11504946383598    1.78967261841577   -0.66955955010900
H          -0.43391749918343    1.63000318434258    0.28744679893356
H           0.91886423462730    2.03545732110020   -0.57935398526412
H          -0.13736914096819    0.83873948334475   -1.11727667088644
N          -2.91573958516888   -1.00003874858435   -0.84936253559425
H          -2.04100283272994   -0.85834802550742   -1.35209903017985
H          -3.55049650370063   -0.25878650987846   -1.11851393370878
H          -3.31229192383952   -1.87465650969483   -1.16948480434133
