    26
        -50.45567413  Gyration_radius:  2.46107883289 Dipole_moment: 5.093
 S           0.41276934968636   -1.89108825765248    0.19705936007026
O          -0.63693780760300   -1.57850616851490    1.28190912751506
O           0.72033939263685   -0.67298858392804   -0.51140310181696
O           1.54445758652478   -2.54254499502264    0.78228780704828
O          -0.31785468634236   -2.85231362841958   -0.74509809123153
H          -1.12639506731165   -2.28958095067616   -1.09442204619231
O           1.42461962592713    1.79437731878360    1.51422076060680
H           1.67271039689552    2.18500018922636    2.35379560770263
O          -1.64644946769536    1.56098199245564   -1.25436474635502
H          -2.08405858351163    2.38272733325013   -1.48132219039685
O           2.98910057965225   -0.34659952609626    1.29521254921231
H           2.50797753481391   -1.19506996193878    1.23048321196837
H           3.47996495747170   -0.27411002204578    0.47359743682427
H           1.97816171201027    0.97933218079835    1.42108602044368
O          -1.11910750736624    0.89188757440000    1.33470963154948
H          -0.85894417825106   -0.56976315017049    1.33053697016952
H          -0.21558470198014    1.26278244041096    1.43193420397563
H          -1.40108618714357    1.12110197705609    0.42624729090363
O           0.96507450862534    1.86863056107872   -1.26342500339680
H           1.05020123859399    0.90280589169034   -1.18454642693564
H          -0.67097038216899    1.71988282550576   -1.37507504824108
H           1.19713137980883    2.19019773237326   -0.38125052319625
N          -2.26674500509213   -1.33277476920078   -1.40725160165509
H          -1.92212153845640   -0.37649534488425   -1.46632207289619
H          -2.92609955594923   -1.38235481388764   -0.64094461629831
H          -2.75015358377188   -1.55551786458815   -2.26765452946239
