    26
        -50.45567432  Gyration_radius:  2.46085030757 Dipole_moment: 5.091
 S           1.63916699038883    0.20947449308250    1.02723174009547
O           1.06191521725086   -1.15963242532136    1.43809558189800
O           0.73642798322781    0.82712129739050    0.08706675044060
O           1.91669822890256    0.99426422763642    2.19110306364872
O           2.94485216681535   -0.14965118546870    0.31208486915709
H           2.63139734354031   -0.73231742235593   -0.49700003597917
O          -2.35458968762696    0.81863707743092    1.15035061227525
H          -3.04598161216818    0.74419778616265    1.81027109486805
O          -0.82517331135283   -0.95335580696385   -2.26543823114782
H          -1.46068507333329   -1.22726653444863   -2.92830017652588
O          -1.37048704755429    1.47129213534005   -1.40638859792175
H          -2.01149435058760    1.36040364759373   -0.69062634693401
H          -0.51275980219473    1.47051465959770   -0.94744588146056
H          -1.02692986833038   -0.00010827954683   -2.06035651344945
O          -1.19628996029416   -1.50097603147557    0.37860637702192
H           0.13266228910302   -1.33269383622674    1.01891708025775
H          -1.66686338281667   -0.68785484969819    0.66259889520075
H          -1.05077006956128   -1.39815353779390   -0.58346467097292
O          -0.44976184801409    2.23813839279833    2.34877256930596
H           0.40848763237745    1.77731859849927    2.43025182795832
H          -0.26875504821065    3.01010841972261    1.80782511318540
H          -1.62154229909934    1.32379872927639    1.58252775963226
N           1.97224868950851   -1.61520267061935   -1.54582546789549
H           2.54003780802861   -1.74424451945037   -2.37323482262048
H           1.07435051615205   -1.22496991151137   -1.82552444325074
H           1.80383850582550   -2.51884248363380   -1.12209817679875
