    26
        -50.45567425  Gyration_radius:  2.4609399767 Dipole_moment: 5.090
 S           0.60748603020444   -1.77565799047876   -0.51360775606119
O           0.03651924920873   -0.97077618585469    0.53834411862123
O           0.91639611748001   -0.86479260351453   -1.71844602007954
O           1.77932938368639   -2.50546865132566   -0.13683625594614
O          -0.45877287014788   -2.73456238943087   -1.05094941386881
H          -1.24945923908570   -2.10297611957987   -1.31295076995632
O          -2.11462465678861    1.49557099933517   -0.11955483715863
H          -2.63577087681006    2.29553333151901   -0.03749962412960
O           1.81814239948333    1.69793735959845    1.16191414457829
H           2.60754914831773    2.24121579905804    1.13406680128563
O          -0.75932267103872    1.04220954751546    2.08761683941403
H          -1.71140046033582    1.33021882747453    0.77568498151544
H          -0.53462568545557    0.16381621418346    1.73524619926096
H           0.06512969749580    1.54029086813459    1.99930278502976
O           2.72383036105490   -0.75455657959441    1.65607098085213
H           2.29144667847478   -1.07825702704599    2.44952039340273
H           2.51159127538656   -1.41167435469688    0.96416809299067
H           2.13199766806602    0.77296753937182    1.32096840654222
O           0.41152861350946    1.53361656477573   -1.14289418445702
H           0.93332305912358    1.64816024131063   -0.31953206382343
H           0.71948448929456    0.12979327118665   -1.51577221242027
H          -0.52607952638638    1.54229536518236   -0.86342614686961
N          -2.23237489997154   -1.00856880399585   -1.69920411382504
H          -1.93524113553744   -0.63238151703582   -2.59063803751669
H          -2.21154716407407   -0.25462033699258   -1.01517087506072
H          -3.18453502516361   -1.33933333909562   -1.78642138231726
