    26
        -50.45567406  Gyration_radius:  2.46111777309 Dipole_moment: 5.090
 S           1.88232767405953    0.15939006816954    0.46584144774937
O           1.27367777072323   -0.79474808011264    1.51268641585656
O           0.83339516010044    0.60120622278052   -0.42018873271547
O           2.59516782942225    1.21449167608527    1.11889231836399
O           2.85662641081662   -0.73147315671749   -0.31011412253514
H           2.24179732457881   -1.46912722628327   -0.72324507340481
O          -1.58028226099227   -1.46790858354876   -1.43838770690012
H          -2.41474319561285   -1.79839478543855   -1.77421119300180
O          -1.77560978986096    1.71414319765026    1.20428576277195
H          -2.24460947352723    2.04696599927780    1.97131290362663
O           0.57278129675669    2.96297381947009    1.27537266843483
H           1.34573644751553    2.36863842653962    1.34524575030755
H           0.68907299607799    3.42788552762938    0.44369149956295
H          -0.88605526634757    2.14744905604033    1.22214756799421
O          -1.51430363248445    1.15862027272534   -1.54400962312470
H          -1.92293137459766    1.46702188858394   -0.72333399653649
H          -0.56740871932265    1.11503593418136   -1.32550777868143
H          -1.58189185151468   -0.48547869037198   -1.60025010659572
O          -1.22187080910457   -0.93374348530505    1.21027709965125
H          -1.35561246173458   -1.21792367479716    0.28361230264291
H           0.24735035306431   -0.87517523722005    1.41654081130422
H          -1.47256863193109    0.01486102782314    1.23408749221206
N           1.18985332482124   -2.48029222162905   -1.15191367821840
H           1.03691972475016   -3.10992858743954   -0.37432713295317
H           1.46375860018840   -3.02256010155998   -1.96097245061108
H           0.30942253415160   -2.01192929653349   -1.35753244520251
