    26
        -50.45567424  Gyration_radius:  2.46100953856 Dipole_moment: 5.089
 S          -1.23115582632955   -0.86207135140296   -1.23574018115772
O          -0.61049908086416   -0.92570729036032    0.06466984877943
O          -0.66280257371015    0.35396650552456   -1.99391738983901
O          -1.08326029293077   -2.04598799871779   -2.02565547645286
O          -2.71522998547226   -0.52237314977122   -1.07063325683059
H          -2.70638168857676    0.35715308031914   -0.50584742037946
O           0.02691705439111    1.83250485298490    1.83354056588415
H           0.40937277750293    2.43756383670126    2.47065155841283
O           2.64773440986764   -0.72052100673436   -0.10548036174273
H           3.49850071618745   -0.75747847417615   -0.54583978160972
O           1.30816293974668   -2.80037211358198   -1.08509198791637
H           2.12033119642959   -1.47306461305211   -0.47270123834147
H           1.03188788610409   -3.35088415297181   -0.34892997167293
H           0.48201266983309   -2.56674226107531   -1.55249070519060
O           0.98839492951954   -0.59221788954848    2.16635897582537
H           0.31224568502242   -0.91448301297131    1.54567959409123
H           1.80564743384629   -0.62608006049435    1.65013687247254
H           0.35283980870020    0.92410407117673    2.07854217940653
O           1.13793269980271    1.46263227372834   -0.62758024565482
H           1.73228703160995    0.70438478972433   -0.44026534749608
H           0.08087371238052    0.83387396748835   -1.45945732269288
H           0.71653643343276    1.68384671542657    0.22730293363093
N          -2.46500536046182    1.66098169062687    0.23913911222478
H          -1.66581264087075    1.57076361166501    0.86352884450314
H          -3.26418291677156    1.96593508071493    0.77941755338412
H          -2.24734700838075    2.37027289878423   -0.44933735162167
