    26
        -50.45567384  Gyration_radius:  2.46133887266 Dipole_moment: 5.088
 S          -0.19970337194931   -1.91657586409956    0.26492028073073
O          -1.21401160078552   -1.25722195904272    1.22036227196867
O           0.53291507182950   -0.87830471664999   -0.41728535681643
O           0.61539438298084   -2.84921427957068    0.98148163254349
O          -1.08319759406021   -2.65714078576621   -0.74305340764929
H          -1.64321968387390   -1.89529359059571   -1.18876967145646
O          -0.96084315897774    1.92309318878004   -1.44860495377564
H          -1.10428806315042    2.82751236666574   -1.73106316970800
O           1.73474689597884    1.35387238426648    1.64287179972852
H           2.00113090587279    1.69063699516400    2.50000795693333
O           2.59295167444707   -1.16445055056310    1.63154816786928
H           1.88744424898773   -1.83197536206780    1.52099798667294
H           3.16914787053209   -1.28091026875790    0.87277208579962
H           2.02239934138105    0.40715082031625    1.62313787037903
O          -0.93014379802578    1.24427564350981    1.19116712387475
H          -1.03476091293119    1.50594296342491    0.25419982726231
H          -1.12489816150492   -0.22727060777355    1.23293192715321
H           0.02820901725998    1.33212786772861    1.38415364228919
O           1.60870471471462    1.43760616148550   -1.16974673625313
H           1.83411113046680    1.71461428714645   -0.27092759131806
H           1.39091344304528    0.49484025076781   -1.07031630095596
H           0.02413650695184    1.77806581195305   -1.46140089204996
N          -2.40314970178619   -0.65836133921361   -1.64177999896153
H          -1.78327599624450    0.14892276428820   -1.66948011254018
H          -3.12632619412356   -0.47599932358050   -0.95753235477695
H          -2.83438694704208   -0.76594285781197   -2.55059202695498
