    26
        -50.45567431  Gyration_radius:  2.46091043558 Dipole_moment: 5.091
 S           1.66390929081215   -0.92620212948286   -0.39934440116094
O           1.04266687034150   -1.68107869008827    0.79268181651764
O           0.81324082035736    0.19009975062111   -0.73183577118897
O           3.01989861594667   -0.57586686235931   -0.10553611697318
O           1.62032635111195   -1.95060013250830   -1.53677623217486
H           0.60036519463224   -2.14866989857001   -1.65203480977755
O           0.05576960174448    1.99281783863110    1.88791023934078
H           0.16212908968458    2.30329079242099    2.78866976765107
O          -2.51373853321025   -0.05565849637841   -0.63231946543506
H          -3.44260145503537    0.17353172332311   -0.57792644495476
O          -1.02796592218864    2.11247242290620   -0.70872794724593
H          -0.26607454545600    1.54798302831626   -0.92576131280600
H          -2.02062739230022    0.79993675491316   -0.75956823462095
H          -0.87235277103227    2.35957185041349    0.21340059936298
O           2.53959675466832    1.83961875796802    0.94647677095199
H           2.81059555248291    0.94441549140047    0.66230312813693
H           2.59267246674504    2.38010924383338    0.15505246923359
H           0.97123538990519    1.90404410569425    1.52267531411175
O          -1.01339731674398   -0.47579057971706    1.60426759962116
H          -0.66074005999371    0.42814396103173    1.75216708909152
H          -1.59891126208160   -0.40509897702833    0.82358950153516
H           0.19389262441695   -1.21212625641747    1.15131149570035
N          -0.90572878744607   -2.35078355758245   -1.59454981686816
H          -1.37459992910577   -1.47012237740900   -1.39122057152949
H          -1.09899696581521   -2.99218828352534   -0.83578731487009
H          -1.29056368240215   -2.73184946043408   -2.44911736156387
