    26
        -50.44772979  Gyration_radius:  2.51299390481 Dipole_moment: 2.774
 S          -0.62059320529217   -0.64710847600409   -1.91359687910830
O           0.72845804697692   -1.22214831851887   -2.05553661202023
O          -1.55226551409347   -1.60123289535631   -1.36083880965409
O          -0.59568669530507    0.62134939042431   -1.22096335526374
O          -1.09320145992861   -0.34661265908829   -3.39226807404908
H          -1.15742331893670   -1.22944703694511   -3.74044012000302
O           3.23782847275593    1.06492257533531   -0.08924953084520
H           3.88270940270780    1.29737322003690    0.58051820867154
O           0.62751040964631   -0.80212477037597    1.90760760759723
H           0.77892332111721   -1.35891593778500    2.67291856083623
O           2.17091564327904   -1.25001129557422   -0.07935546337659
H           1.54331097931581   -1.27408045736792   -0.97107230894579
H           2.70312723179537   -0.37573869683796   -0.15033225311516
H           1.54071751203760   -1.12584788621780    0.71968277959123
O          -1.77963384832253   -1.18267347010323    1.24623505424785
H          -1.76556206343914   -1.45912488589262    0.30560150405226
H          -0.35611607095388   -0.96367495964142    1.64121550371219
H          -2.18859368422170   -0.28474434951684    1.22778658051141
O           0.85908591292158    1.74890824144622    0.73000897656450
H           0.69201148803764    1.05953288953089    1.38766077234702
H           2.37732018339159    1.49746742705640    0.17340225802761
H           0.31667505332409    1.49023496159974   -0.03970269828738
N          -2.57978766117722    1.35724009173483    0.75852514669585
H          -3.52673050820612    1.56381554839292    0.46750312277538
H          -2.00947702451732    1.26693721487758   -0.08127073885815
H          -2.23352261216881    2.15570454571014    1.27596076652249
