    26
        -50.45567397  Gyration_radius:  2.46130848038 Dipole_moment: 5.087
 S           0.53397387023459   -1.70706406879929   -0.76515693067770
O          -0.25413048006144   -0.98284835117331   -1.87463297919552
O           0.53517394519193   -0.87829026897530    0.41515704919095
O           0.00825932489568   -3.02344959546186   -0.56916917737494
O           1.95615115457322   -1.78801146332730   -1.32719723993528
H           2.23218445437868   -0.78722108766723   -1.44972679095363
O           0.85034739020098    2.43950908205159    0.22120255484450
H           0.80532926849488    3.37235497671654    0.43604188200024
O          -2.45951425390030    0.15647300916473    1.21016939947379
H          -3.41779070592569    0.14402185402604    1.18577215580925
O          -1.23301212250144    1.15855926989753   -0.98266571236420
H          -0.47312187825128    1.66585588783975   -0.63266199887920
H          -0.67025168709793   -0.09700037483661   -1.54173924551360
H          -1.71916931483352    0.83405964167155   -0.19416474803143
O           0.02496821603279    0.98282054354842    2.24894569522245
H           0.35019013031998    0.19548873922996    1.77943824653107
H           0.62426793712879    1.94778302432599    1.05700690265424
H          -0.93585244204627    0.92178707277939    2.15652374101730
O          -1.77325882385714   -2.41121429522417    1.33431981240776
H          -1.23337524858139   -2.53975273396841    2.11745879738845
H          -2.17734623460780   -0.79182946686601    1.23233207174434
H          -1.21994093355679   -2.71941101959275    0.58971268131641
N           2.39784482350356    0.71427178438294   -1.62508473427135
H           1.94263440818579    1.21351251888119   -0.86335048270415
H           1.93971212246938    0.97417883562533   -2.48937290319788
H           3.36572708960860    1.00541648575429   -1.66915804649848
