    26
        -50.45381415  Gyration_radius:  2.64821758237 Dipole_moment: 1.729
 S          -0.10653168590564    0.79517690332329   -0.00851239761039
O           0.78324583650694    0.77587151626905   -1.13569797265871
O          -0.57915977304104   -0.51669846054901    0.39961441070429
O           0.59204663703705    1.46428748562348    1.16891770203006
O          -1.30015711352687    1.69272556247408   -0.28994594717311
O          -2.39328949246424   -1.54502162951848   -1.28148026753377
H          -3.12546512071320   -1.86008620957484   -0.74820539824696
H          -1.68794730531323   -1.28202106159252   -0.65827447361446
O          -0.13674363815294    0.99310736709572   -3.64160895170708
H           0.18255604645298    1.83330543006738   -3.97589695877832
H           0.32275104237072    0.84389073277361   -2.79218699514268
O           2.17655901119407   -0.93727186388223    3.32727673465771
H           2.80734028101487   -0.26846303873103    3.59880782600805
H           2.30093074923137   -1.06060518731757    2.35073321807317
O          -2.44798116439399    0.89791557001900   -2.33901851855910
H          -2.56588021150310   -0.05306419423417   -2.11361565708188
H          -1.84580587886231    1.40410528530784   -1.17209771168226
H          -1.71082478724611    0.92741672481356   -2.99408601619473
O          -0.24173539484143    0.07110142663625    3.06704488795988
H           0.23569302077093    1.01449843545683    2.03623906122476
H          -0.65622429050719   -0.53528274104233    2.43946958852698
H           0.61585256558593   -0.35745861588809    3.33186452710490
N           2.26154827663485   -1.07864329195840    0.63531121349056
H           2.42239637101334   -0.17297263102312    0.20877526467443
H           1.28343530712678   -1.28714052157088    0.46087976214568
H           2.81339071153365   -1.75867299299728    0.12569306936120
