    26
        -50.45567405  Gyration_radius:  2.46111724759 Dipole_moment: 5.088
 S          -0.47565131816813    1.25588852193936   -1.40757583705384
O          -0.43473010640533    1.02136590091246    0.01497855835173
O           0.00426108753471   -0.01797699220793   -2.13108859202167
O          -1.75529118359738    1.65304712362149   -1.90984175544240
O           0.58133513263078    2.30036713357546   -1.77748001673011
H           1.46688917044174    1.90563557914334   -1.38689624519925
O          -1.92186498244348   -1.76442251496722    0.85644430687238
H          -2.50559314973714   -2.51278914453430    0.72127376656421
O           2.04216622856501   -0.71425978607746    1.42801737542938
H           2.54207668180858   -1.24759855245329    2.04766477064573
O          -0.30401983973906   -0.08285947702981    2.43326632308021
H          -0.42468301090114    0.53361534406423    1.69051882865026
H          -0.89190219643987   -0.81931509158431    2.21528755646313
H           1.21679317746681   -0.42838146350015    1.90606303588855
O          -3.25897434680690    0.30284805510041   -0.15268487212743
H          -2.38832453754625   -0.98381192375092    0.46608153991727
H          -3.34803345396681    0.96611230005841    0.53543387203980
H          -2.80484505389933    0.75873292436309   -0.88859783885570
O           0.43955969998061   -1.85083355508767   -0.46077641797961
H           0.19283074917814   -0.79265815752528   -1.47278130097343
H           1.08936555199944   -1.47899433242530    0.16917608770751
H          -0.41324402098549   -1.87635345390822    0.02432914085055
N           2.63974375607017    1.11919973878820   -0.82188505377782
H           3.44491392527276    1.69624462225346   -0.61618075639489
H           2.90318822188261    0.42608130337118   -1.51083556577557
H           2.36403381781837    0.63111592779568    0.02808909991287
