    26
        -50.45567439  Gyration_radius:  2.46095230136 Dipole_moment: 5.089
 S           0.44959031012139   -1.40906128069212   -1.26454496090879
O           0.69855868039716   -0.86368398721472    0.04727262140200
O          -0.53731123876394   -0.48359609621714   -2.00357196544307
O           1.62239309160337   -1.61035573899684   -2.05929567516093
O          -0.32365615741279   -2.72374621387898   -1.12628150781818
H          -1.15925827872176   -2.46050840240406   -0.55628646949947
O           1.48553027666438    2.30792313061632   -0.06060856343000
H           1.77644043345732    3.11636248615889   -0.48579593398363
O          -1.73611064509763    0.54000667481447    1.84878839734931
H          -2.19665496024516    1.07273577238919    2.49865050895937
O           3.06335973788721    0.42339233873417   -1.07967204064456
H           2.04337607406234    1.58542504185543   -0.44309162913740
H           3.50613211885503   -0.02019551993375   -0.35260862243991
H           2.59115102171463   -0.28465942472004   -1.56055747092667
O           0.86644749313138    0.71901498182558    2.18112088148183
H           1.14448923886128    1.49827047162859    1.68017488819443
H          -0.77135893467683    0.57179448273764    2.09287685422432
H           0.96871328133200   -0.01004219190014    1.54522821047130
O          -1.05219155779719    1.53787939684289   -0.59370413754934
H          -0.77118830451791    0.35830301708726   -1.45078056418351
H          -1.38883863864902    1.18533820554412    0.25465308338986
H          -0.14973625896025    1.87222538737743   -0.40085261342773
N          -2.32892068836393   -1.85037467390658    0.20083251594996
H          -2.86450563758808   -2.53041798762144    0.72451817248070
H          -2.93637525352855   -1.41058884314816   -0.47894545848974
H          -2.00007519356706   -1.13144101698915    0.84248148908816
