    26
        -50.45567426  Gyration_radius:  2.46100621007 Dipole_moment: 5.090
 S          -0.04933207692979   -1.94074805285922   -0.12877292907399
O          -0.63019250391380   -1.60034330552253    1.25809117467668
O           0.34686762270648   -0.71428043691174   -0.77621145137455
O           0.99462897359612   -2.91085036366275    0.00094178005475
O          -1.23919896162147   -2.54618929790350   -0.87903172463848
H          -1.94047182341954   -1.77122187118766   -0.89705356063738
O          -1.47509003878108    2.06985605837666   -0.51145494531441
H          -1.73235817498326    2.99293127563358   -0.50755361344786
O           2.20684956955022    1.15932328765339    1.15114210032965
H           2.77502633042696    1.33779713403154    1.90238623008024
O          -0.42609385814590    0.86984642686758    1.69981810975552
H           0.53157248937239    1.01544224518346    1.54160148404820
H          -0.88509587814723    1.30618457434869    0.95401614083835
H          -0.56241428627842   -0.59104971218978    1.47198455653754
O           3.03951053974429   -1.19827747372400    0.24112834500522
H           2.35837990943059   -1.89939357562256    0.24972155398586
H           3.27927945430434   -1.09373158087899   -0.68239117043661
H           2.48190891520803    0.27245156123083    0.80873049676571
O           1.01403113693919    1.80525250063337   -1.31712280083387
H          -0.56724500394785    2.03332141922264   -0.91874529204530
H           1.56114694464375    1.91325891876104   -0.52685640720905
H           0.86652757812692    0.84484785973697   -1.36352581948807
N          -2.83605563254412   -0.55250321747944   -0.73670259565214
H          -3.58606010739485   -0.51593966449302   -1.41473468030396
H          -2.28852811989966    0.30273703436260   -0.81110788211991
H          -3.23759300804467   -0.58872176360635    0.19170291048637
