    26
        -50.45567407  Gyration_radius:  2.46126457759 Dipole_moment: 5.086
 S           0.27687082665894   -0.79427633992549    1.75437372969640
O           0.55249202312267   -0.89877812037702    0.34258012533501
O          -0.66601082552191    0.40341506621529    1.98468588155135
O          -0.27697479339419   -1.97511689223791    2.34302190667617
O           1.55776677560584   -0.39178435224318    2.49075420508288
H           1.86307445160680    0.47943061209439    2.00023151770949
O          -2.16898526950071   -0.83183209409606   -1.46279218934027
H          -3.11348227456211   -0.89937028494412   -1.61248377065415
O           1.01871974680452    1.80896028676354   -1.55368177640994
H           1.06966246650878    2.38997787357418   -2.31408111307342
O           0.51212407165848   -0.65854883464481   -2.30826197971711
H           0.69485453900421   -0.94506075614140   -1.39685442310014
H          -0.45054636146655   -0.72137248845541   -2.37750639669004
H           0.92800472626069    0.88458378313590   -1.91249202448425
O          -1.32748150589214    1.41977586977259   -0.22193203074172
H          -0.95722355380924    0.84592772436074    1.09697180742196
H          -0.48619291793451    1.64884407846329   -0.66583772673327
H          -1.67222682180094    0.63447287321539   -0.69921320827282
O          -1.62326844385394   -2.83987209415202    0.19547972924154
H          -1.24121464601983   -2.56551841078098    1.05241257598353
H          -1.94366511867878   -1.55622287994365   -0.82729330218645
H          -0.95258121644857   -3.39228828271801   -0.21232679395270
N           2.07981769696248    1.76183190960454    1.21224324424701
H           1.80993291939918    1.63100136774694    0.23921223934654
H           3.03658931750019    2.08947577618693    1.24077937547155
H           1.47994417779246    2.47234460953563    1.61201040758776
