    26
        -50.45567436  Gyration_radius:  2.46084282712 Dipole_moment: 5.091
 S           0.03967917013585   -1.92826962475286    0.25749878483389
O          -0.52724132044366   -0.84018497635418   -0.50076228646643
O           0.95566570125376   -1.34261418111205    1.35048954472683
O          -0.92179800318186   -2.81094184149108    0.84405992694953
O           1.00217435161467   -2.71751990346162   -0.63450773494124
H           1.66443302561889   -1.98999592360889   -0.98781524146614
O          -1.84661037253504    1.45193363244734    1.42111675804250
H          -2.20231966215156    1.79820233453371    2.24124717870238
O           1.26327010932623    1.86639848991221   -1.28168630101290
H           1.49996827367858    2.76110448407968   -1.53016597142595
O          -1.34589147179045    1.54647583692169   -1.34862461556161
H          -1.66967118085566    1.83113093016373   -0.48280261820992
H           0.28132439716146    1.78568610564053   -1.42549799362552
H          -1.20263427833295    0.59090076699633   -1.23646404294220
O          -2.85635231399320   -1.00368964040525    1.24979539857278
H          -2.18970191689333    0.52665829939243    1.34693407349444
H          -3.32842345438729   -1.07498807591158    0.41713106356746
H          -2.18738185587391   -1.71603223281039    1.22509445905261
O           0.84206661847565    1.17231656473450    1.32012942563948
H           0.93303061439766   -0.30903200948466    1.36544902672663
H           1.08521271908662    1.43302702126356    0.40895547279995
H          -0.12558702822580    1.32192499650591    1.38797306615709
N           2.55473890979225   -0.80032463854141   -1.31160257492395
H           3.18241691174954   -0.66679515661908   -0.52888020118028
H           1.99548399726272    0.04411041528345   -1.41578378024426
H           3.10414803909578   -0.92948166334646   -2.15128080726452
