    26
        -50.45567410  Gyration_radius:  2.46107219335 Dipole_moment: 5.089
 S          -1.75960955070250    0.73906284755764    0.37702816673565
O          -1.98005285257103   -0.32131632917244   -0.72010880021232
O          -0.34935968126865    0.81228802499775    0.67063525446358
O          -2.35234905998779    1.98128500013718   -0.01460493622755
O          -2.49832726574060    0.16293772112753    1.58845839239129
H          -2.00439959261681   -0.73970987289312    1.77290337291991
O           1.55951453299066   -1.92372691133514    0.76588864174853
H           2.32260318732669   -2.50298328366473    0.74411051024683
O           1.46506924097148    1.13000454093194   -2.02929169747639
H           1.61837473080978    1.32836351500065   -2.95463492258627
O          -0.20334395944620    3.03591185278331   -1.21502186744416
H           0.82554941923324    1.81378212746338   -1.70849953113098
H          -1.06103889460514    2.70743072754214   -0.88020829389835
H           0.19977608378446    3.48728835263327   -0.46997659087165
O           0.23409733142583   -1.22224940482571   -1.51034751705157
H           0.70800000279464   -0.39454592705936   -1.74199171830384
H           0.67710266080322   -1.56288647846728   -0.70724310829101
H          -1.08872599684055   -0.71311432626011   -1.06802746621804
O           2.30269497343986    0.59345531819935    0.60533622536114
H           2.37441824596799    0.78866620045020   -0.33929659193712
H           1.38900175713372    0.84709983910894    0.82236091250344
H           1.91397214903193   -0.99401605188950    0.80402848386234
N          -1.21050250710274   -2.03621514405556    1.81208198789998
H          -0.23732768376307   -1.86423605716224    1.56691626030635
H          -1.60487522765103   -2.65682460708240    1.11657037423368
H          -1.24026201339696   -2.49575167407725    2.71293445894648
