    26
        -50.45567417  Gyration_radius:  2.46096571933 Dipole_moment: 5.091
 S           0.00884630503901   -1.20982380530174    1.52362133087706
O          -0.56238940923379   -0.92930615550979    0.22921716202315
O           0.97773325007159   -0.06879018075755    1.89233913128384
O          -0.94899183966013   -1.39796644133978    2.57002858056604
O           0.91999963272277   -2.43615800791860    1.41831406704165
H           1.58398492944283   -2.18544357293973    0.65087603423179
O          -1.76320414386555    2.10502964822090    0.03620606551197
H          -2.08141453570210    2.93726078525507    0.39008449036499
O           1.25582736695775    0.40408277388840   -2.23160689061722
H           1.50282376766335    0.86516163407581   -3.03450685034384
O           0.91354087631863    1.72568434601700    0.12769976181341
H           1.12949040822720    1.27212651259795   -0.71190848059809
H          -0.04775422144627    1.91883282323910    0.08355810091771
H           0.97625926096390    0.68702313258938    1.18674374641586
O          -2.82982791436747    0.26031526164386    1.62950705632047
H          -2.12822175658625    1.40182129735425    0.62923523093861
H          -3.33273013422846   -0.34933208490638    1.08483990917275
H          -2.17705547172937   -0.29604161837463    2.09845259997397
O          -1.36027793910246    0.23286200162291   -2.02873693519618
H          -1.64689430752526    1.05088542587198   -1.59950079774865
H           0.26783318657367    0.28621170511727   -2.26828977644129
H          -1.23344768200644   -0.38266167081429   -1.28622083483897
N           2.48666756757930   -1.59122684315156   -0.41927381324807
H           3.14734628465846   -0.97996395328883    0.04366765544514
H           1.94211357481042   -1.03131907830906   -1.07249848651904
H           2.99974295443416   -2.28926394487242   -0.94184804733411
