    26
        -50.45567414  Gyration_radius:  2.46098138764 Dipole_moment: 5.091
 S           1.07253026199900   -1.03425822847881   -1.25116462754569
O           0.95226514905655   -1.90645682356622    0.01433477582348
O           0.39402440899941    0.21653688960468   -1.01520693881638
O           2.44654295600164   -0.90518592241835   -1.62968280972501
O           0.30772921038554   -1.83119534826666   -2.31187020565325
H          -0.66364337174887   -1.88305403705282   -1.92909247017999
O           1.31091528422607    1.61311083021605    1.79435980838605
H           1.88395688176759    1.74765347177262    2.55105250468160
O          -2.47511895748911    0.35428118630620    0.68514493615929
H          -3.20798764054707    0.67924154125790    1.21011003221528
O           2.98267140843438    1.33040735454593   -0.25610407167754
H           1.91246444368078    1.48065983745841    1.01977538755782
H           2.91381178623803    0.47237542944866   -0.71936787642019
H           2.75894830699550    1.98995613214404   -0.91661301762358
O          -0.20943318394682   -0.62376654272281    1.84284362077663
H          -1.06810083066793   -0.34939749320724    1.46245614304403
H           0.47857909576709   -1.40884955692376    0.78709075618605
H           0.33462755404259    0.19219595283815    1.88196957114820
O          -0.82102050743590    2.31030824633176    0.09177715475843
H          -0.37238720675907    1.70559553649095   -0.52410119554676
H          -1.94832549794655    1.15418763951698    0.41305985526293
H          -0.20694554499553    2.37311042869928    0.83645704469658
N          -1.97414225353045   -1.91109542058248   -1.15789626513838
H          -1.90640383446160   -2.64856307387243   -0.46794548029372
H          -2.77924762663314   -2.08715765826264   -1.74477638908304
H          -2.11631031143189   -1.03064039127664   -0.66661023298748
