    26
        -50.45260130  Gyration_radius:  2.49748306838 Dipole_moment: 5.354
 S           0.69112844939984   -1.47183457939142   -1.62969300653033
O           1.27780072045552   -1.13815480189417   -0.30945509368906
O           0.18323596311138   -0.21253278655583   -2.23068034058633
O           1.58489987781089   -2.17745264819333   -2.48114053104451
O          -0.55528311638138   -2.36734024042304   -1.34278464570007
H          -1.14406690540795   -1.88744509494136   -0.71875759676068
O           0.47475125884351    2.39303948167188    0.71659635366691
H           0.45617766479258    3.13828522928624    1.31736411290206
O          -2.26313084521347   -1.04929560259132    0.22701839834177
H          -3.14619419948355   -1.25451280186201   -0.08533727283533
O          -1.38731712608668   -1.09210394012382    2.81487124191680
H          -1.79170475063144   -1.09900416399650    1.92787262890225
H          -1.16690490899137   -2.00226842640847    3.01967136235517
O          -1.54397683831662    1.19209866845122   -0.81772782927854
H          -2.05650561186397   -0.12332390355671   -0.10754195819660
H          -0.94971982537905    1.72416669587708   -0.26557518221198
H          -0.96698464207389    0.72524723996976   -1.46405786076146
O           0.84894757631196    0.19131772851177    1.99258277756927
H           0.58641829465873    1.56816682949759    1.28907828204995
H           0.05368766900393   -0.17523300677229    2.42991683398712
H           1.03710556739972   -0.41800708652285    1.25371352840658
N           2.00066451676379    1.15647306361503   -1.11407538938387
H           1.29124981864895    0.85750619467956   -1.85134913332981
H           2.89778051007292    1.43990357263231   -1.49030030065131
H           1.57048432697098    1.86380000525970   -0.48152616065129
H           2.01745656562324    0.21850436375170   -0.59868323849326
