    26
        -50.45260131  Gyration_radius:  2.49745833907 Dipole_moment: 5.354
 S           0.85157106310713    1.37793841376152    1.63574321661133
O           1.21237944615792   -0.03938982843701    1.89267523986392
O          -0.45630842773754    1.39195217869041    0.93734794732582
O           0.87272832531132    2.18206109588596    2.80818687783063
O           1.89884057869462    1.93071087173324    0.61816718606402
H           1.84414973146863    1.39472794780670   -0.20408947292402
O          -1.48356625602062   -2.05888049724622   -0.15982730292242
H          -2.03736971113596   -2.69581845364778   -0.61179493719548
O           1.90091330103815    0.41518546286058   -1.57760095471204
H           2.81383970170729    0.33011438451918   -1.85833059307044
O          -0.24786361150234    1.03271098085746   -3.14831371228696
H          -0.26435525168749    1.98719425903373   -3.23566299930594
H           0.57428664416512    0.81331599071642   -2.67262042041562
O          -1.85370344916463    0.30893822616636   -1.09366048035308
H          -1.65507207845492   -1.16715304905762   -0.60260660551002
H          -1.38956142360510    0.84436588057564   -0.42245834516307
H          -1.39295160292349    0.49962422656965   -1.93592378157274
O           1.29396788349270   -1.66323070288217   -0.18319994555600
H           0.36542867683305   -1.93680246549951   -0.24708361842959
H           1.66293203939186   -0.45534413587678   -1.13307627878407
H           1.36673223039112   -1.14588590052570    0.65086659224362
N          -1.22032164238050   -0.70484751591807    2.14365537718726
H          -0.16618646329940   -0.70887425263900    2.30195417422293
H          -1.46799342534318   -1.41333379445832    1.42101108305167
H          -1.76906219933416   -0.78074376360653    2.99208150251991
H          -1.25345408914664    0.26146442066708    1.68456025128556
