    26
        -50.45260130  Gyration_radius:  2.49752095971 Dipole_moment: 5.353
 S          -0.44868491532315    1.37489787515522    1.79125209927428
O           0.77794648970490    0.62782308623641    1.42272547954942
O          -1.61572916832900    0.51205680292331    1.47737991137005
O          -0.44238783841700    1.84046404865301    3.13473407606016
O          -0.52331377729100    2.60004157899631    0.82628901128098
H          -0.48192402094597    2.26861331310056   -0.09828669047589
O          -0.02525198103380   -2.48629542329646   -0.53305953656311
H           0.18607613235344   -3.26477311091375   -1.04876420923056
O          -0.56968442928823    1.74770573955590   -1.70143930850139
H          -1.18274302469634    2.31202123572801   -2.17597741685286
O           1.94101893433340    1.02012438329853   -2.49675227334232
H           2.52937709467980    1.73675169699295   -2.25343827547345
H           1.03658481342652    1.32736391949297   -2.30190302867064
O          -1.82703037390023   -0.38530753260351   -0.99297905897557
H          -1.05635144352616    0.88288728318334   -1.53628303152149
H          -1.27849538546841   -1.18441430978903   -0.95257253657391
H          -1.89635087506158   -0.05773134322218   -0.06750762964407
O           1.94151597048012   -0.82867869325593   -0.52039004228133
H           1.65635071385684   -0.21257125137779    0.18081390065865
H           0.77284176072847   -1.87119245464027   -0.60540389631933
H           2.02571186969054   -0.27833016815544   -1.32544614698339
N          -0.30422623751207   -1.59663290581973    1.98485910488852
H          -0.25719105312719   -2.19573395010201    1.13378803871828
H           0.44082608473900   -0.83351853334250    1.89386241532576
H          -1.13835202998638   -0.93695469250497    1.91228617777937
H          -0.26053333002264   -2.11861659426533    2.85221286643936
