    26
        -50.44483789  Gyration_radius:  2.51306358986 Dipole_moment: 4.674
 S          -1.24445198820740    1.69115858711000   -0.56023771800368
O          -1.51698967266575    1.68331311078916    0.88481163537665
O          -0.16443576159899    2.58417374460849   -0.89902989170904
O          -1.08724060296680    0.34599450381802   -1.07547404400662
O          -2.55159397913901    2.27684025090672   -1.23111890092722
H          -2.47351933206119    3.19727785828618   -1.00432568497497
O           1.73558562300939   -0.60300217925273    1.08135443654822
H           2.54299221919550   -0.54922641922634    1.59345946792746
O          -1.59125209504927   -2.05917263762033    2.13059816602975
H          -1.33114639317470   -2.82617219595869    2.64289786030880
O           0.62484838481681   -0.74694955629730   -2.88652473205860
H          -0.08495753279334   -0.26478685557571   -2.42740519327011
H           0.47005793277898   -1.67343252692059   -2.68747968051875
O          -0.32977723932495   -2.05176227394333   -0.15746581599528
H          -0.71268701658860   -1.24201531656045   -0.54974532400440
H           0.54772182496144   -1.78360665824631    0.15000799275510
H          -1.24080094909016   -2.19342656944824    1.20737624930746
O          -0.31081708440486    0.14073890991132    2.36532563948766
H          -0.83968772957061    0.84215092159566    1.74244116782526
H          -0.89481479773712   -0.69866252631294    2.38152233833884
H           0.55205866970309   -0.12685619801329    1.84902407374163
N           2.01828035107151    0.85756190774204   -0.95787577760055
H           1.28858410352568    1.57636872743194   -0.92532334884184
H           1.80758980468874    0.27676849932022   -1.77165821387316
H           2.90818025145854    1.31374296439439   -1.11261919415687
H           1.87827299915149    0.03298192746858    0.21746447228668
