    26
        -50.45260133  Gyration_radius:  2.49753337546 Dipole_moment: 5.353
 S          -0.46821249658774    1.88062795382893    1.24264312291107
O           0.15833479809270    0.82944659871779    2.08375552678845
O          -1.24281352078089    1.20323442115147    0.17511431478279
O          -1.23763790869206    2.81213024605207    1.99231933205925
O           0.69569322441652    2.63720943980268    0.52808084253205
H           1.19275269368832    1.99151787540125   -0.02183254019231
O          -0.51896478921803   -2.48853121860496    0.06096716678113
H          -0.57444144705766   -3.37200042701659   -0.30380784016869
O           2.17302234944569    0.90196647730244   -0.85918886408947
H           3.08818480903028    1.16960179603975   -0.75759071482265
O           0.90809798696229    0.23639797070211   -3.18779434003258
H           0.63593317815416    1.05692049759389   -3.60207040601009
H           1.44395262773376    0.48344086832620   -2.41179433393571
O          -1.14129624373354   -0.72337212753543   -1.70339487275144
H          -0.73852436541553   -1.85414467907711   -0.69394042144396
H          -1.22831624020633    0.07131865431706   -1.14347860981334
H          -0.43266337639505   -0.50863872561566   -2.34352267374926
O           1.68160356938984   -0.94547651704638    0.86651034318698
H           2.04436150601128    0.11003463807919   -0.25226697021662
H           1.19971401524509   -0.30628499120246    1.43909033102714
H           1.02295412313592   -1.59917524396356    0.58376032799345
N          -1.77462557897212   -0.76172948892758    1.68895365101452
H          -1.42956790714681   -1.62545648635591    1.21948750381795
H          -1.89459308516086   -0.00462767542826    0.94192464077168
H          -2.59536754978673   -0.91185456667596    2.26385746148935
H          -0.96758036211799   -0.28255528998680    2.19421800208355
