    26
        -50.44702219  Gyration_radius:  2.478927923 Dipole_moment: 5.318
 S           1.62315580885449   -0.60706125516319   -0.89678415985811
O           1.26473269573242   -0.31160501631765    0.46784715691482
O           1.80106287438959   -2.00069939790862   -1.20744954734857
O           0.69953731273867    0.04964068881003   -1.84429115001657
O           3.03099804007236    0.09085411152935   -1.14281404604102
H           3.38218645817340   -0.37053984712255   -1.89861942581667
O           0.33286791216074    3.22125580495864    0.75566865630935
H          -0.13288798692952    3.98483630447970    1.10070898629917
O          -2.28241318021173    0.38672914938587    0.39640893313083
H          -3.22159704735240    0.37344788510749    0.20705546693344
O           0.72971313707267   -2.99882465394675    1.06740628567569
H           0.97744528198513   -2.23471662790161    1.59583288500086
H           1.22396552411623   -2.88339885849698    0.23760391841531
O          -0.19185828501655    1.10877340211194    2.17850444120427
H           0.44484857720072    0.54387767391743    1.70066050079564
H           0.23709784157587    2.48997463808835    1.43113415995433
H          -1.05800887401740    0.81703093556956    1.86378747422979
O          -0.78557241841439    1.84818306524263   -1.06184138045717
H          -0.27249027650303    2.46171770041347   -0.41229094436133
H          -0.09648606949298    1.10948536639761   -1.43018287392785
H          -1.44117248514208    1.30667263079114   -0.48225500764282
N          -1.25166533215570   -1.75813412515999   -0.56487757357228
H          -0.75756724008386   -2.29836808658948    0.15189714873422
H          -1.89903407566853   -0.52310240903836    0.06491888377447
H          -0.53268437477971   -1.39910906886805   -1.18654310676702
H          -1.82417381829494   -2.40692002027649   -1.09148570156344
