    26
        -50.44612503  Gyration_radius:  2.48597688335 Dipole_moment: 2.148
 S          -0.51195372094666   -1.61263830215965    1.45816023547024
O           0.18900302412777   -0.37033656076939    1.23206607548210
O          -1.94536515767599   -1.49147634471315    1.54452881914007
O          -0.08975500261439   -2.62921384741790    0.48142954228308
O          -0.01993069041594   -2.14972476000043    2.87352695379223
H          -0.61395607664406   -2.87410634070654    3.04546997682542
O           2.88362032510558    0.28723289838148   -0.25345433480954
H           3.65059056593146    0.41183968782176   -0.81567655641453
O          -0.45427270806599    0.14133529992632   -2.17266516907595
H          -0.89390658025251   -0.21165464933150   -2.94723101610955
O          -0.36884002894515    2.18602306151880    1.28344117225785
H          -0.19091568363481    1.21721929859688    1.32943578246450
H           0.04860291929489    2.56416960697401    2.05879863820491
O           1.16377023141563    2.13160085345268   -0.95758614495288
H           0.60987576437122    2.29634080785954   -0.16765593657997
H           2.27758807551934    1.06236217946346   -0.42407267524354
H           0.60479098459660    1.61066951956237   -1.54949897580141
O           1.28652695902071   -1.46022918715038   -1.17712538691475
H           1.95094197284190   -0.83412144118789   -0.69244350839926
H           0.73684262001579   -2.01302520463794   -0.43353926237546
H           0.59455995118990   -0.83522432358186   -1.59606775252543
N          -2.26660032619323    0.52754286923003   -0.38853978218695
H          -3.23171104203330    0.63233477414203   -0.67634338461448
H          -1.19055940746859    0.28667034745345   -1.45464046288582
H          -1.99833620256123    1.36729387170141    0.11426171086918
H          -2.22061076602749   -0.24088409439310    0.28542143204349
