    26
        -50.44612493  Gyration_radius:  2.48574157538 Dipole_moment: 2.141
 S           1.04170053363071    1.75434224025605    0.90676653316522
O           0.08165485899756    1.29342531975065   -0.06871612043910
O           0.59168734368802    1.69299938086963    2.27449364127804
O           2.33897888866249    1.08820585477678    0.70957635199373
O           1.29768581978464    3.29242694243060    0.58613732961201
H           1.80592980599712    3.58587639652734    1.33622451437814
O           0.31403793094155   -2.17214799875445    0.35919634131240
H           0.74547501657273   -2.87164593181948    0.85148875111889
O           0.42699240374718   -0.08269074952514   -2.87691707667017
H           0.61843463201416   -0.59551168416329   -3.66447178036786
O          -2.46460401456969    0.69073622258204   -0.12030896427983
H          -1.52362060476682    0.98040671865514   -0.06673379720608
H          -2.92340771446144    1.38393429945736   -0.59712531375722
O          -1.51266011628411   -1.34249614826959   -1.64893027879746
H          -0.99558342686428   -1.83539817266561   -0.99791086050144
H          -1.98821295148748   -0.66203316461085   -1.13062868469451
H          -0.39388889789918   -0.48113727185375   -2.47147079861851
O           1.95568291633837   -0.68634515804651   -0.93843305092623
H           1.31967860022845   -1.29646536537195   -0.42039800449214
H           1.38987480398418   -0.31390133766400   -1.71888991607033
H           2.16943178033161    0.12147445433083   -0.25841515278530
N          -0.89913764630719   -0.68457646876635    2.07151243658391
H          -0.16628006304006   -1.57146780056968    1.05728056780817
H          -1.13858373655751   -1.06581552167446    2.97846506806354
H          -0.33361436195191    0.15466251860974    2.22187157727865
H          -1.75765180071833   -0.37685757451862    1.62633667702608
