    26
        -50.44612502  Gyration_radius:  2.48609730343 Dipole_moment: 2.147
 S           1.75541391583379    1.05957524371133    0.88704131806509
O           0.81256905146982    0.99593212940009   -0.20496979656222
O           1.21167416952668    1.54952845274621    2.12844957750998
O           2.45011915523400   -0.22814317859349    1.04493104662192
O           2.87717503316662    2.09956945217445    0.44643462056961
H           3.37614179285375    2.22783360766900    1.24750346234863
O          -1.01982712292627   -1.85990421066298    0.67152325269170
H          -1.11786235163025   -2.55680346376950    1.32156278124764
O           0.59802231090862   -0.91484706510540   -2.69616188524694
H           0.54472832697743   -1.60428689608027   -3.36076209330165
O          -1.60330228343471    1.86705323165316   -0.70822307856098
H          -0.67609897495904    1.60636782260186   -0.49685922582221
H          -1.53441477435505    2.57669990316832   -1.34857437979251
O          -1.82825284342627   -0.62884423137166   -1.75420912518928
H          -1.75485497291928   -1.16973739467658   -0.95655715947824
H          -1.88164869843675    0.29302359027768   -1.42984969314286
H          -0.34068175936616   -0.70916662226702   -2.42475963118042
O           1.29987068973961   -1.81661950980091   -0.42622572795332
H           1.86312880492802   -1.12936869127109    0.18334975046904
H           0.38015538891370   -1.85874216588288    0.01764044013083
H           1.13144125811238   -1.37481594178831   -1.34520933725142
N          -1.33542416137479    0.37382370497435    1.90781681569585
H          -1.14025383664066   -0.96202973707562    1.17941766425861
H          -1.84116332961067    0.38806581549714    2.78490464842766
H          -0.41199530019536    0.78329869761214    2.07009677049033
H          -1.81465947836105    0.99253747683555    1.26168897495345
