    26
        -50.46051243  Gyration_radius:  2.40458820719 Dipole_moment: 1.288
 S          -0.92977664079979   -0.68501311332048   -0.75752894987289
O          -1.77175007043486   -1.91274947627711   -1.17970894588688
O           0.48368359713903   -1.10043195887090   -0.76581424869807
O          -1.15128565748777    0.37084184614955   -1.72788404260136
O          -1.32413718800176   -0.28749825572894    0.58834111716095
O           2.04292854294087   -1.06382272115590    1.33633333112069
H           1.46042848571636   -1.18807767513622    0.55043585945430
H           2.92715995209346   -0.93160639403923    0.98972840333870
O           1.59444627418423    1.00112359520528   -1.79138796350970
H           1.26719689447762    0.13625850648335   -1.43345228967362
H           0.99344451852434    1.18313447944927   -2.51969999140696
O           0.48680500867454    1.01157218614453    1.89484477457590
H          -0.31513078700399    0.56903601860723    1.50292659057720
H           1.17493318903655    0.30387496426161    1.88163075877603
O          -1.46131310916785    2.77202647999640   -0.79487821854077
H          -1.47691468268875    1.83096993014908   -1.10781030793473
H          -1.75147627487708    3.30859099933674   -1.53450583221749
O           0.93333561408003    2.61170827994585    0.07745746223206
H           0.78262203811085    1.93753992358435    0.96301325302222
H           1.30580771425128    2.01345922178031   -0.66927981580397
H          -0.01482291748813    2.83118824084499   -0.21795002091375
N          -1.02085005150533   -3.05928758826402    1.04182589630272
H          -1.47377766353909   -3.72589454366305    1.65379300780826
H          -0.02773021850110   -3.25343725443827    1.03534236359078
H          -1.58281345778832   -2.54935198686972   -0.43372962096385
H          -1.15101310995524   -2.12415370417147    1.41795745007115
