    26
        -50.44612495  Gyration_radius:  2.48591383613 Dipole_moment: 2.143
 S           0.73542450995742    0.21389604327384    2.09781462614861
O           1.09489955568565   -1.14224831571344    2.42723846985189
O           0.92356628378643    0.57114081789379    0.71113921924066
O          -0.62461660153078    0.56037826068233    2.54027995887793
O           1.71009736021358    1.15332158411946    2.93537146387922
H           1.66949727237555    0.77790226004367    3.80974860868113
O          -0.58065306881830    2.60297846728010   -1.16303185266089
H          -1.15984790773724    3.15634868202838   -1.69047798155433
O          -1.82077553148659   -1.02358040553311   -0.76346526653920
H          -2.58887494889329   -1.57137804403635   -0.59678946937550
O           2.10504006807917   -0.44453641019166   -1.39162957968379
H           1.72205962028158   -0.07395560020897   -0.56197618026281
H           2.88663095620251    0.07918112429019   -1.57383340275231
O          -1.86268599084008    1.19735611651624    0.52195657314972
H          -1.28033002253538    1.82820694179773   -0.05335939533653
H          -1.87127259100529    0.31072418755282    0.01318330872414
H          -1.33035912084989    0.98117373833036    1.43318140802946
O          -0.18142202322922    0.42967407621569   -2.56796492318160
H          -0.83451191974790   -0.15022645517992   -2.15394269181057
H          -0.31924241621073    1.83272464284197   -1.74223611257260
H           0.68574980245790    0.07975135748039   -2.27907390154562
N           0.23534351197031   -2.34750626587667    0.03449100569809
H          -0.99622784257832   -1.56078463670244   -0.43140457138302
H           0.98578806732682   -2.12819627866830   -0.61256213512527
H           0.51997886745267   -1.97701745025994    0.94471372851399
H           0.17674410967115   -3.35532844801288    0.11262907287871
