    26
        -50.46459354  Gyration_radius:  2.48533072139 Dipole_moment: 3.593
 S          -0.74890821025492   -1.48358915451550    0.97972988984343
O          -0.36755010966428   -0.91655323600497    2.25110127255555
O          -1.73063739451865   -0.70361695467449    0.25695400141899
O           0.39655348401071   -1.78871108260256    0.11445686192021
O          -1.40218615951712   -2.89062274652793    1.31564710442137
H          -1.73423295189617   -2.72045710094151    2.19021446183246
O           0.84378937160187    2.19731424487049   -0.36398302613189
H           1.44497958725269    2.93781125515910   -0.45107702502180
O          -2.20122805672809    0.24445066947152   -2.28508955907021
H          -2.44489674946544   -0.42198513311949   -1.62710982049134
O           2.88007875290924   -1.12543254048743    0.81822911030264
H           2.00200935096231   -1.46540369174512    0.54763208841409
H           3.21338836040141   -1.74073677069054    1.47302654154057
O           1.45798508170485    0.96802364762314    1.80836430478679
H           0.73064160572157    0.37955208072170    2.09615432369860
H           2.16267606494890    0.35572772185121    1.52135301477408
H           1.05914219855520    1.76670937702546    0.52280986114340
O          -1.96999931530223    1.98757240968710   -0.28517394661922
H          -1.98744103192212    1.13459357231759    0.17843078982475
H          -1.04830687586809    2.27900418310406   -0.25100296352558
H          -2.29756727216195    1.08520535692595   -1.78202115504890
N           0.36761563301546   -0.01653791003496   -1.82735562229942
H           0.98805242544901   -0.24047941834575   -2.59792098970840
H           0.64797299164069    0.87732946770315   -1.36313722267829
H          -0.65474101091849    0.08009898824331   -2.14526306462819
H           0.39281020004778   -0.77926723503359   -1.09496925124628
