    26
        -50.46459302  Gyration_radius:  2.48526983881 Dipole_moment: 3.594
 S           0.23417560672605    0.06816484721474   -1.91386451957320
O           1.44185261695922    0.35350573974606   -1.16910122601814
O          -0.04981473843268   -1.33980905087719   -2.05627912425269
O          -0.89291561076710    0.83441100629797   -1.36941698145203
O           0.43546374121667    0.61722530859544   -3.38942148935333
H           0.74895512622109   -0.16885691264481   -3.82287983479187
O           2.32291525583572    2.00152242425253    0.85343781369503
H           2.32549440194293    1.84330489534070   -0.10122962726994
O          -0.16076387868503   -0.97967582667606    2.16433960267969
H          -0.51888909868936   -1.37205604551862    2.96130198314920
O          -3.12725210030571   -0.36913927707179   -0.55615212906231
H          -3.66514025569457   -0.61288451707500   -1.31093468158970
H          -2.36551012038157    0.13156168722288   -0.91518392943933
O          -1.24027258803922   -2.18602764748093    0.16786095008951
H          -0.72824794160326   -2.02985166787236   -0.65167821201761
H          -0.54784796697392   -1.50729858388475    1.39612629351056
H          -2.06851011208286   -1.68653420476252    0.03231785065267
O           2.46592904783454   -0.63613758729418    1.18962911403265
H           1.66443781096840   -0.92007924545461    1.65074185057763
H           2.21108765530208   -0.55527507805819    0.25615495229868
H           2.62066165990595    1.13492892954074    1.21352179099255
N          -0.23846392322234    1.49218339900275    1.09060573487485
H          -0.84604444484971    2.19055085363330    1.50532849209955
H          -0.52563228997012    1.29411341468180    0.09211947449193
H           0.78765241407813    1.81182355224827    1.06501753292928
H          -0.28332027725778    0.59032959690035    1.61763834875643
