    26
        -50.46459257  Gyration_radius:  2.48524001305 Dipole_moment: 3.593
 S          -1.21463075669659   -0.55401068153620   -1.39289675747603
O          -0.58681081917307   -1.65807271435007   -0.69896269400628
O          -2.34998902374645    0.00625375347080   -0.69987217051445
O          -0.21095903383208    0.44941562014360   -1.76660408994624
O          -1.78090944600529   -1.10736741406883   -2.76850344547284
H          -2.67508634825781   -1.30950656586713   -2.51616823119836
O           1.92357739129236   -2.53616018746231    0.01473516118391
H           1.18045662385070   -2.66007129401579   -0.59261530012706
O           0.68574203491004    0.72501593573070    2.16168205525179
H           0.93364978786443    1.28503391411761    2.89807144224185
O          -0.44601052841406    2.99702753824237   -1.02072364593279
H          -0.35149006539859    2.09495642749262   -1.39112856030460
H          -1.08841182326982    3.44541762992451   -1.57271950855269
O          -1.46123458020455    1.70566589787722    1.14453822006970
H          -0.18995512653952    1.08960859012254    1.81708032107019
H          -1.12137249783764    2.36845684397322    0.51285963649982
H          -1.91080715238215    1.04390781149632    0.58042786626010
O           0.14331061228977   -2.03560782285936    1.93074563139185
H           0.27988648122104   -1.12678265408422    2.23244486316380
H          -0.38936385125100   -1.96149787499406    1.12226548096773
H           1.48626096096685   -2.57208545526919    0.89605429057393
N           1.85300839291551    0.07778220403635   -0.18075010863665
H           2.01387262251858   -0.98361117565063   -0.12257120310379
H           1.06872637756633    0.23414892826067   -0.87288910664591
H           1.52009841977615    0.40637289270816    0.75432406475282
H           2.68844132784596    0.57570987254825   -0.46882422149701
