    26
        -50.46459243  Gyration_radius:  2.48525986207 Dipole_moment: 3.587
 S           0.88865558317264   -1.23193986175682   -1.18884610770475
O           0.52959422655094   -0.45366095129696   -2.35011623271444
O           1.78850003807336   -0.55399291924822   -0.28041694881955
O          -0.27286333208621   -1.75453459635544   -0.45977791636175
O           1.64019718001866   -2.51403293876781   -1.74614208751287
H           2.00778988042720   -2.16111155533509   -2.54886242530310
O           2.07516371152333   -0.05910213313508    2.41316661813360
H           2.39224313717666   -0.58046104361183    1.66210618018717
O          -0.99966017351858    2.04183757000804    0.70819289659404
H          -1.64776597580801    2.72151363640245    0.89619165107113
O          -2.76125676625779   -1.11506841566143   -1.16751004062749
H          -1.87518336360934   -1.44836215840305   -0.91523103729751
H          -3.02534835922606   -1.61840251520160   -1.93908753474687
O          -1.44119003804481    1.20427676999193   -1.68125591368029
H          -2.11455696955490    0.50923865375483   -1.54953521835062
H          -1.15029504971084    1.77157382256655   -0.25240727585942
H          -0.66296353175093    0.72261715408551   -2.02849953531282
O           1.82270999016054    2.00230726888698    0.74665690163534
H           1.91683131393312    1.25001357480360    0.13994516609515
H           0.88657294514087    2.24351535599893    0.71325903663409
H           2.13974979912643    0.86304614008852    2.07438955470291
N          -0.44753648357734   -0.37369347833016    1.77070662208838
H           0.55096099536724   -0.28060014488299    2.15825484410195
H          -0.76429114095003    0.57345620019057    1.46141627885727
H          -0.38982492876394   -0.98816323331744    0.91176816437695
H          -1.08623268777751   -0.77027020147292    2.45163434981810
