    26
        -50.44483793  Gyration_radius:  2.51297653008 Dipole_moment: 4.672
 S           0.82853852586774   -0.38049777560643   -1.97244756411603
O           2.14025709360726   -0.78014093685993   -1.52706797987936
O          -0.13216769690386   -1.49243051047022   -1.91681326265460
O           0.30983039781957    0.79931103442886   -1.31010583057506
O           0.95719159684992   -0.01237165988647   -3.50533975589184
H           1.47756670891113   -0.74248560342374   -3.82288527154620
O          -0.16706918060479   -0.74194803709493    1.99161701515903
H          -0.02903943004366   -1.29133464096104    2.76373397544330
O          -3.35225565137149   -0.27042835026257    0.00972276654521
H          -4.02509981662344   -0.26279199937339    0.69207420718286
O           1.45830732768343    2.65509181933340    0.31547990594827
H           1.16756089981280    2.10099771066030   -0.42988603471816
H           0.65766952744406    3.06272489881825    0.65422096271297
O          -1.40839009368843   -1.92579621928267    0.13494194269912
H          -2.25680662111351   -1.36542543445887    0.02559243807830
H          -0.84747316926325   -1.77129935283184   -0.77121108900169
H          -0.86924322333712   -1.47355720126955    0.90138823195935
O          -1.42663185329152    1.37808623052827    0.64329450121466
H          -0.85538056758849    1.26579073317286   -0.14233308936915
H          -2.74336730963586    0.49693328557813    0.19277541194337
H          -0.99651607761810    0.85609034751289    1.33536682482330
N           2.09888666989499   -0.01515807601585    1.14935903861953
H           2.19854799005596   -0.36484111242243    0.19126586473177
H           0.81527828391091   -0.44728860388970    1.64638547415051
H           2.92297553558199   -0.28106321306307    1.67291994675476
H           2.07683015366118    1.00383265716025    1.07795139976188
