    26
        -50.46459299  Gyration_radius:  2.48527033358 Dipole_moment: 3.593
 S           1.44253819851234    0.33172486813146    1.23734153767999
O           1.50806556857106   -0.96740600338439    0.60285276940348
O           1.96380047997986    1.40771171741242    0.42873807215121
O           0.08628882579055    0.58692513860077    1.73669912628825
O           2.35966761684409    0.28382266410471    2.53187596744993
H           3.17270999580924    0.62708304130299    2.17801696928125
O          -0.07768418366754   -3.17708323719353    0.17343323808506
H           0.65554353668407   -2.81203693406475    0.68880454593088
O          -1.19360627873091    0.07053623116389   -2.05921594180014
H          -1.79358854979733    0.34176958475738   -2.75477130480008
O          -1.27940804632691    2.75420083928768    1.00163851319560
H          -0.96421827940955    3.52193012441862    1.48090144535889
H          -0.79447338002512    1.98623200953109    1.36893107544851
O           0.07266751664281    2.16777549917842   -1.28177739981566
H          -0.52373903395147    2.54620306103367   -0.60728877464263
H           0.87726607334873    1.92252817842352   -0.78108060288107
H          -0.66347806726013    0.89300654978508   -1.81234332087101
O           0.87261481838849   -1.84817193367294   -1.92942818646271
H           1.34146056004097   -1.43325609687273   -1.18721356168175
H           0.20642324888587   -3.00337554763962   -0.75304936149735
H           0.20291529157765   -1.20537463583740   -2.20138366830805
N          -1.52276059469359   -1.00007487131156    0.39320997869920
H          -1.04068461761695   -1.95952863667923    0.34016528954550
H          -2.45761019387563   -1.06290610509727    0.78176111937593
H          -0.91106907031099   -0.37950623285337    0.99272755489056
H          -1.53964143540912   -0.59272925249718   -0.56954504003306
