    26
        -50.46459295  Gyration_radius:  2.4852624427 Dipole_moment: 3.592
 S          -1.48309989040645    0.56123213882459    1.09884070431811
O          -1.84122711716774    0.31849301813092   -0.28226431675212
O          -1.41120417818062   -0.63317469443827    1.90601191505503
O          -0.27074026839301    1.38490164487100    1.17346441339283
O          -2.62865400016827    1.44896818829311    1.74604168438265
H          -3.17582432074597    0.77088110549686    2.12668346213548
O          -1.04873766761893    1.04676558066691   -2.81666779597860
H          -1.71024748075362    1.17566965671428   -2.12222129785563
O           1.57852160042960   -1.49575270817681   -0.97024525787046
H           2.37590670538465   -2.00384249169267   -1.12315139340222
O           1.87880038535169    0.57316886967315    2.52361675664347
H           1.74403654845407    0.69550695497048    3.46452504002253
H           1.09208918342231    0.95728473557065    2.08385417992555
O           0.95940193190692   -1.77433679635345    1.50877037842359
H           0.02855614141944   -1.51571657559469    1.66642989006803
H           1.31809612661683   -1.66848611461153   -0.01069994974126
H           1.48057130615690   -1.07278222663561    1.94471515732495
O          -0.98955522182923   -1.52843995780123   -2.14132587341201
H          -1.03988254134081    0.06806615354939   -2.92298362123336
H          -0.09812649566518   -1.73179488669191   -1.82566314414567
H          -1.44383218212799   -1.12171318409191   -1.38564609437446
N           0.96133984455873    1.12359212495713   -1.13441055288467
H           1.70560123455643    1.79670781835342   -1.28224929369455
H           0.20684590300637    1.17975341778558   -1.89816114656043
H           1.33257041732157    0.14633622651819   -1.11759730748702
H           0.47879405576136    1.29871198173324   -0.20966654633297
