    26
        -50.45071931  Gyration_radius:  2.45461830512 Dipole_moment: 5.477
 S          -0.80633472043490    1.78630293634216    0.08780885785177
O          -0.92137738960250    1.74078699935942   -1.35152758112586
O          -1.60234610968173    0.72156403178968    0.71799662546684
O           0.54716083249241    1.80052216831216    0.59176021428047
O          -1.47795399541514    3.14452159624186    0.54658165620189
H          -2.15050743906938    3.24900661633126   -0.11748635664826
O           0.99839626453589   -1.94874470330231    1.16559470307719
H           1.14106110205920   -2.76405214588065    1.64815746000612
O          -0.88008431652377   -1.51061381761469   -2.54111070200519
H          -1.64456886480291   -1.11154427697656   -2.96143989222479
O           2.27795637098316    0.00961377270851   -0.49090469268042
H           1.80216599574057    0.74694963574447   -0.06983724998743
H           2.04452302872814   -0.78001630054734    0.01176773045024
O          -1.21709697586506   -1.59256879670499   -0.07380545935169
H          -0.32528594970148   -1.82120168073393    0.35916290031120
H          -1.43275565233935   -0.61182785208075    0.24421509545165
H          -1.07913765748372   -1.57969524375284   -1.13350624885940
O           0.86724688633996    0.32534784035268   -2.74699291919298
H           0.28188052562380    1.00457551384710   -2.35882743554306
H           1.56032561990452    0.17443529654387   -2.06929033604637
H          -0.11528453948569   -0.84811378953808   -2.69058130662435
N           0.41361313858137    0.02299123187356    2.74852710313699
H           0.83161473812948   -1.20986950156482    1.85275199037746
H           0.51180350189264    0.77692170734150    2.06319954024614
H          -0.56840868445720   -0.00372726187304    2.99545005902789
H           0.94339426984650    0.27843602378467    3.57233627440650
