    26
        -50.45071948  Gyration_radius:  2.45455691156 Dipole_moment: 5.472
 S           0.68074507129761    1.72488046964446    0.63965867582378
O           1.56622735523997    0.57983137479483    0.90266594717271
O           0.75997633335937    2.13870523095157   -0.74218760218198
O          -0.65638652930947    1.47961403505984    1.12756779724495
O           1.26731496394178    2.91925988179438    1.49739948120012
H           1.91056316248343    3.27741246857400    0.89558591197603
O          -0.82651830293196   -2.28427755261343    0.50066361344317
H          -0.89849256502762   -3.21771700595942    0.70427959751606
O           0.91587471526715   -0.57175697772815   -2.88922316698118
H           1.63859693363708   -0.00472663577010   -3.16586350314383
O          -2.28526727702629   -0.00956692996404   -0.45501884707571
H          -1.85147985077865    0.59344709525141    0.17390286040426
H          -1.98311585990192   -0.89655390287598   -0.22553417897336
O          -0.96195048071973    1.09922954338579   -2.50417626256795
H          -1.62410183218915    0.69271216476248   -1.90525946517443
H          -0.41552616444180    1.66548752519292   -1.92501404079476
H           0.10233861784454    0.04435370632586   -2.82125393453383
O           1.32418488266516   -1.39373936610477   -0.57280255007063
H           0.46264475838748   -1.81246215735516   -0.22996942404739
H           1.15711970262216   -1.06128322233838   -1.57460660440956
H           1.47863888399294   -0.54791771243769    0.03562008403239
N          -0.34036650867037   -0.86648378867526    2.61929011101345
H          -0.86451462612391   -0.92148356499588    3.48348057464809
H          -0.69403829867078   -1.78613843949569    1.38404606472865
H          -0.50986930921584    0.05393167039954    2.20475987046491
H           0.64740224426324   -0.89475789981398    2.84198898028623
