    26
        -50.45071944  Gyration_radius:  2.45472534206 Dipole_moment: 5.469
 S           0.28798014201259    1.93416106992440   -0.16057074587077
O           1.38008909254296    1.20273767677314    0.50027962709065
O           0.32877695337260    1.75010190526100   -1.59285135217935
O          -0.98643542005655    1.64720955411556    0.45560549535485
O           0.58626655416147    3.46685567659583    0.10064247868286
H           1.16028091171384    3.66806245709269   -0.63028280880445
O          -0.35738160016150   -1.99049510752637    1.43659262754588
H          -0.24295062123758   -2.75067561348171    2.00842354028205
O           1.11576401079912   -1.51484214893238   -2.44462996382702
H           1.71643911537471   -0.98057150565072   -2.96810877373562
O          -2.21637979704079   -0.65644625595356   -0.28964811481030
H          -1.93843253854213    0.22579530668385    0.01314210786896
H          -1.74740287982944   -1.28940039371806    0.26721331349167
O          -1.07656752811800   -0.24811024766703   -2.68008414305259
H           0.19150196497704   -1.10235782081166   -2.59232511783911
H          -1.66223045555245   -0.49611277089880   -1.93315785116986
H          -0.67936347354592    0.60396012768790   -2.41377912215959
O           1.60133424573674   -1.20781177371808   -0.02013424146784
H           1.55685814705297   -0.17430826380780    0.17837441430076
H           0.83239799369406   -1.61229169409681    0.50931768569014
H           1.40568554646395   -1.35914185095446   -1.05970489756915
N          -0.24698237974774    0.24015918207272    2.75821912146333
H          -0.36071611725163   -1.15732138382068    2.02970926756296
H           0.71717866501966    0.50577132623251    2.91898683634623
H          -0.58780329274152    0.85317178058722    2.01270589888612
H          -0.77790724909161    0.44190077801237    3.59606470791945
