    26
        -50.45071920  Gyration_radius:  2.45442674685 Dipole_moment: 5.484
 S           1.91991100706007   -0.10566280128544    0.38668808491129
O           1.04654668372516   -0.39435350346636    1.53481880029283
O           1.97935513497491   -1.22992585098380   -0.51853442677915
O           1.58105492078639    1.15617908357600   -0.22888300917836
O           3.37359509687421    0.05839285473257    0.99177213782774
H           3.67013733723048   -0.84501212236210    1.00200976466220
O          -1.11367260236384   -2.72446850937550   -0.92116822525038
H          -0.51895591140680   -3.45096312504175   -0.72393046507787
O          -2.19136711070550    1.10191989641438    0.36549767479136
H          -3.04166548556243    1.37818126570755    0.71000632644631
O          -0.51328635961738    1.15615447085337   -1.95790485147562
H          -1.24916711348827    1.20196573187268   -1.33577990006565
H           0.29333897094037    1.29539204133246   -1.43131115938759
O           0.25375236478587   -1.34001298657064   -2.55835222460258
H          -0.09583365955984   -0.42338087304129   -2.56132211222249
H           1.03192339398160   -1.30886835202854   -1.96835948184767
H          -0.64903458926558   -2.19020717943625   -1.65916815011273
O          -1.24564663794015   -1.18508123637019    1.03352304985585
H          -1.20887743912655   -1.85529911555189    0.20183521842364
H          -0.26072164285952   -0.89738022119848    1.27114848230947
H          -1.70553614365356   -0.32954507772232    0.73095322734189
N          -0.22506447452657    2.26185999572133    1.59983159053066
H          -0.14989592019906    3.25919809789042    1.75564619406629
H          -1.47207654143637    1.63887380047325    0.85581355849532
H           0.51885706455154    1.98597406909171    0.95312536645493
H          -0.02767034320183    1.78606965677241    2.47204450959197
