    26
        -50.45071951  Gyration_radius:  2.45470093588 Dipole_moment: 5.469
 S           1.36626291895718   -1.12652202577396    0.84495372082863
O           0.92740463735967   -1.58371803763171   -0.48266891979078
O           2.27250707253236   -0.00663610668401    0.73769177494366
O           0.24264503974873   -0.91983307650468    1.72863756833126
O           2.20706424995753   -2.32442066379987    1.44862971295604
H           3.07115164862176   -2.13435055739167    1.10015675201528
O          -2.31621496127142    0.27027927883026   -0.84588235990014
H          -3.11371083894850    0.26213001928760   -1.37682310502167
O           1.27390652125955    2.22068833421828   -1.72077645594838
H           2.20008491289396    2.05663811849464   -1.90959134304114
O          -1.09907677054768    1.42776535576268    1.47705465254889
H          -1.66444116971419    1.22231150717271    0.72283943239617
H          -0.67708084628809    0.58895666689848    1.73332824412304
O          -0.03360494320055    0.11848464386301   -2.00240400002919
H          -0.95733363433809    0.26536806071196   -1.60203558865239
H           0.52050621285267    1.02677180180802   -1.90294495445720
H           0.41628229164901   -0.61264775352164   -1.39213195355167
O           1.27582690574566    2.47367319798865    0.80953893902122
H           1.23725182765079    2.43328789285297   -0.72099956140213
H           0.36826664753825    2.30379788181376    1.14102985076917
H           1.75472307450898    1.63379626889767    0.95068219639126
N          -1.88163878449206   -2.02616933064283    0.28226945236175
H          -1.43983783719741   -2.66094150500191   -0.37191859883547
H          -2.24147759261694   -0.64183625548007   -0.38931497567024
H          -2.56617019375565   -2.54481265878335    0.81801342504030
H          -1.14329636891262   -1.72206106738850    0.92266609458494
