    26
        -50.46254260  Gyration_radius:  2.3984295855 Dipole_moment: 9.381
 S           1.77987062070143   -0.24956540733421   -0.68802245988607
O           0.48517956083753   -0.43348559415152   -1.33976099568232
O           1.59395202529419   -0.23658910553202    0.78842549050790
O           2.79589623807863   -1.15508817983264   -1.10256096148788
O           2.21570824445205    1.22441177077669   -1.04172771679838
H           1.40938261733102    1.76511876795739   -0.95268474650914
O          -0.07547599352133    2.69953859644990   -0.69650987217711
H          -0.07734961187914    3.44005524482358   -1.30463717722821
O          -2.15517791546845   -0.43763745057506    1.13042551115387
H          -2.87757207130044   -0.80579331151623    1.64057301378347
O           0.70077663594053   -3.08378837290491   -1.18377525400834
H           0.49669595814123   -2.18011835840758   -1.47980474426733
H           1.66281537485594   -3.09961023380891   -1.15846798945721
O          -0.23354511900209   -2.16600842864462    1.17264225787138
H          -1.46217632973135   -1.16967729642819    1.07114853921356
H          -0.08408581232484   -2.72649605709842    0.38394045769459
H           0.53224495655867   -1.56168293660758    1.16733305356854
O          -1.78091366971813    0.86542874818595   -1.33771063934330
H          -1.01940618899612    0.28080741304800   -1.53943905438000
H          -2.18972834771620    0.44914394764084   -0.56513476646598
H          -0.78820156527745    2.06422527458280   -1.01723211726747
N          -0.20274934894338    1.33143054623930    1.63753232335348
H          -0.04933971279634    1.64601592262744    2.58882853207267
H          -0.22351878152320    2.11580082066442    0.97100646758494
H           0.62107735512055    0.66670782482992    1.30346498288041
H          -1.07435912911251    0.75685586502115    1.55214786527526
