    26
        -50.46254268  Gyration_radius:  2.39829024073 Dipole_moment: 9.380
 S           0.65770001459204   -0.38598782880124    1.76619241344381
O           1.64745439235133   -0.02846200990202    0.71396366959516
O          -0.61626858446991   -0.73009799302471    1.13883621065912
O           1.15855585009349   -1.35389126510029    2.68077934760325
O           0.39079350911625    0.96776303640653    2.53018315415320
H          -0.15455572843330    1.50636087112432    1.92767691349446
O          -1.07799234270345    2.46040117806296    0.75305854678964
H          -1.67422251780342    3.03747798314701    1.23231238960208
O          -0.43391546375807   -0.18325821900712   -2.42637643232965
H          -0.43750284510525   -0.42791370424019   -3.35255150303929
O           0.13370977065919   -3.26820096436462    0.83734279127351
H          -0.38789282672371   -2.46130865974392    0.98844521008579
H           0.76367653346553   -3.26706971797250    1.56507341541256
O          -2.29594513985153    0.51055794400557   -0.43023325588537
H          -1.65119314829150    1.76092163572672    0.30993393279144
H          -1.89758149464839    0.28299016663634   -1.28271888192152
H          -1.85482108835080   -0.09739445399280    0.20064867088961
O           1.14141835549913   -1.83246458700361   -1.20973489651638
H           0.74900228628969   -2.56089623520597   -0.68633363935334
H           0.09848304812407   -0.90132439964665   -1.95662457521794
H           1.50888446484666   -1.23860819585414   -0.52865781128170
N           0.85053752216296    1.67547731992857   -0.97999751435437
H           0.19008262842456    2.28170826964980   -0.47397128655702
H           1.24728275273827    0.96005017608702   -0.22984331987316
H           0.34191335081730    1.08735894231481   -1.68199810884489
H           1.60239668096078    2.20581070076879   -1.40540543061958
