    26
        -50.46254263  Gyration_radius:  2.39836002667 Dipole_moment: 9.380
 S          -0.42994437397755    1.17328257903934    1.46341942238879
O          -1.34043139357710    1.15835463026319    0.28644211961387
O           0.83690350024701    0.53874430188199    1.10645492426351
O          -0.31190013280907    2.46572469112040    2.04624770235698
O          -1.10753664233552    0.19267770435716    2.49627446754714
H          -0.95493874807159   -0.70406113115657    2.14555846545210
O          -0.70959919221380   -2.29905560742841    1.41101847618460
H          -0.62990087900798   -2.94743208775137    2.11204096012812
O           0.65366438376316   -0.79397396285194   -2.24819757661160
H           0.88161499675969   -0.87000975658247   -3.17550382900237
O           1.81571601334917    2.83990266714892    0.18901499096975
H           1.25804396147569    3.40447898365161    0.73367333310336
H           1.72247635151610    1.96376868018413    0.60093317621040
O           0.31606658595693    1.71993495038124   -1.75096671152324
H           1.02616064180693    2.20880000373896   -1.28698910641572
H           0.63247540549067    0.19659675777366   -2.05280721694126
H          -0.39181056645642    1.66255102579951   -1.08223296331874
O           1.53583527147004   -1.81781698277068    0.22291967470332
H           1.50595804902496   -0.91859293631347    0.61381346218841
H           0.20503997195246   -2.20891692351744    0.99921853582278
H           1.43031208686496   -1.65782323437800   -0.72601700482619
N          -1.61036033288331   -1.09225914928287   -0.84054835379105
H          -0.79323524753671   -1.12530025997744   -1.49526446054758
H          -1.49975877114671   -1.79144932334379   -0.09305410074114
H          -1.54934422944077   -0.10104931274318   -0.34493384118459
H          -2.49150668022286   -1.19707628724342   -1.33051452603084
