    26
        -50.46254265  Gyration_radius:  2.39833954466 Dipole_moment: 9.378
 S           0.82000361518696    1.28582040327915   -1.17305105185730
O           0.67316104771914    1.29551695138171    0.28066007495873
O          -0.14365248544998    0.31671647581850   -1.76188569756769
O           0.75558358432638    2.56495097707332   -1.79260170290713
O           2.23545620828909    0.64410109596634   -1.44194171739718
H           2.30875274403875   -0.10079983126872   -0.81727613011826
O          -1.70849147703086   -1.22207224837860    1.30430255351735
H          -2.52139551117945   -1.55867797476005    1.68315594690902
O           2.34243928108699   -1.48702861334461    0.28733588683272
H           3.24895071961135   -1.63502551553624    0.56028712895216
O          -1.25192119055938    3.13174784904320    0.14628753674268
H          -0.96649164639817    3.50423298961730   -0.69408269277905
H          -0.48807206717372    2.60036069816014    0.42927536698555
O          -2.35352106669300    0.70969596624047   -0.28776941209195
H          -2.21921287121540    1.63260717231008    0.01010220507618
H          -1.67043233887692    0.59319727894126   -0.97433580164129
H          -1.97282417382516   -0.40482290128344    0.77344932104737
O           0.87202366151482   -0.49735217897295    2.17012102413104
H           1.85489294244564   -1.13300720369760    1.09424477527325
H           0.82311685092324    0.32936915802789    1.64447903582345
H          -0.03562116468301   -0.83354984145744    2.15182320768367
N          -0.12241589940247   -1.98952198905159   -0.71880172051694
H          -0.12724539870835   -1.00297897943074   -1.22774880315680
H          -0.43532168768876   -2.72087020346578   -1.34708353898407
H           0.84507535628322   -2.14206009311621   -0.40192829763556
H          -0.76283703253738   -1.88054947209484    0.10298250271939
