    26
        -50.46254259  Gyration_radius:  2.39845226702 Dipole_moment: 9.378
 S          -1.07502884278767   -0.40997751158327   -1.54263296736238
O          -1.46627578471612   -0.21560803922707   -0.14835145815329
O           0.38665457074795   -0.68008922916596   -1.61426484693269
O          -1.84355901539348   -1.37287652532783   -2.25414940160601
O          -1.24660679085751    1.00308720363144   -2.22183184364617
H          -0.89813334922285    1.64744284971447   -1.57851039858207
O          -0.17981468236186    2.75549330801435   -0.39591467412577
H          -0.63528446365537    3.59659839786756   -0.45316414204493
O           1.45695259437855   -0.27846095161579    1.97870304714434
H           2.03246026701286   -0.61238487336018    2.66783840811133
O          -1.82673827539482   -2.83285117147194    0.19215468902884
H          -1.91047921128963   -1.86516886365926    0.24304520026920
H          -2.00498100748539   -3.02501006571042   -0.73389564104647
O           0.79628080024162   -2.28985372109132    0.49555745376124
H           1.12792182004960   -1.09235086162214    1.47972057218964
H          -0.09231170976947   -2.68578782052013    0.60560089339505
H           0.73876443247890   -1.84495458652650   -0.37064595887605
O          -0.76512385314057    1.43637911804526    1.74951930670971
H          -0.45218142812570    2.34179149715308    0.48092497554050
H          -1.22015729794272    0.78226629325991    1.17738372433297
H          -0.01072704866242    0.94396756815638    2.10400830178025
N           1.85197099704672    0.96392049909671   -0.36635072241828
H           1.24253664209311    0.25028668442842   -0.95948086640798
H           1.35382977112864    1.86398404331929   -0.40474183836670
H           1.84879861863601    0.58607357797939    0.61052791674924
H           2.79123225699144    1.03408320021565   -0.74104974944396
