    26
        -50.46254264  Gyration_radius:  2.39834256984 Dipole_moment: 9.375
 S           0.44292105799168    1.73931093057770   -0.69386851122945
O           1.04669116893318    0.43632018295033   -0.96315719707935
O          -0.34891795121540    1.66792963344598    0.56422746755359
O           1.34887209169969    2.83619637700858   -0.70742034215998
O          -0.63678261406267    1.93744846235906   -1.82634836822470
H          -1.07658730055454    1.07279782040377   -1.92365207559264
O          -0.07531362472688   -1.97974590455098    1.47882150293279
H           0.01417352825769   -2.60245533397117    2.20124058141238
O          -1.88426945579024   -0.50352302797225   -1.99370885535115
H          -2.17730075806741   -0.65431544604846   -2.89347715396490
O           3.17136905578574    1.02935523346974    0.52993777279046
H           3.09834838532135    1.98327421147289    0.42467958710415
H           2.58722692519039    0.67963245949295   -0.16463955293628
O           0.13019060706493   -1.98224396960629   -1.32963441628230
H           0.09497199567966   -2.26868840917680   -0.40551600867955
H          -1.12420974173778   -1.14348387703494   -1.82938667166926
H           0.67114143506308   -1.16461201429569   -1.29782011061821
O           1.20357932029985    0.16213164398146    2.15576406234596
H           2.08714982044330    0.32691254786531    1.76755796268069
H           0.64064719989627    0.83352507782691    1.72686388026737
H           0.51732628798014   -1.19772544644088    1.71761179761416
N          -1.98296094428045   -0.26026569912000    0.70252758088077
H          -1.38755505720939   -1.04710923289047    1.05396685267713
H          -2.28125634501325   -0.44107095480620   -0.26601528371107
H          -2.77064792336881   -0.08018316044966    1.31458654157959
H          -1.30880716358120    0.62058791550860    0.65685894766017
