    26
        -50.46047700  Gyration_radius:  2.51697570459 Dipole_moment: 5.338
 S           1.77181084654947    1.30406058216209    0.06265421094681
O           2.37788034696400    0.73655720840505   -1.11455036776868
O           0.83917976762509    2.39211643320486   -0.23427317702914
O           1.14686028308813    0.33694652713140    0.95096881043363
O           2.96111062270479    1.95125799431109    0.89580550682355
H           3.57955844720299    2.15575937397669    0.20246176542233
O          -1.90072412493509   -0.30742824960759   -1.17486784787510
H          -2.52229706899505   -0.37405166834267   -1.90056983422052
O           0.69308537792156   -3.18845448791562   -1.06867224005065
H           0.21825204247060   -3.99476297783678   -1.27300265880093
O          -0.79291958446558    0.41954030014038    2.76418326739896
H          -1.03316209063832   -0.50935905497126    2.65401232828468
H           0.10904540780093    0.47386986435183    2.39085438033979
O          -0.56735428685496   -1.74472415939322    0.86327688987197
H           0.30137202726406   -2.82995120806663   -0.24608535606865
H           0.16218894004021   -1.09552728935924    0.87776461221265
H          -1.20522679122570   -1.39089412374086    0.22778003064739
O           0.41807671423428   -0.69364704719205   -2.19573092916011
H           0.64923996151815   -1.60778904629331   -1.94304157519516
H          -0.98318141496241   -0.41155226674779   -1.59439476044390
H           1.16151144184860   -0.14252122790814   -1.87575123369592
N          -1.50804309722624    1.71747806526399    0.55123194675894
H          -0.53681335971859    2.06972526480609    0.23230065198603
H          -2.17353745327632    2.48115293558387    0.59195752428849
H          -1.79505989589587    0.98870471872248   -0.14060111123412
H          -1.37085304910782    1.26349353948392    1.49628918602301
