    26
        -50.46254262  Gyration_radius:  2.39832886249 Dipole_moment: 9.377
 S          -0.18452635274550    1.55698818257146    1.11499970631621
O           0.94536315986657    1.10562242935211    0.30610148529095
O          -1.11665759276524    0.41950878655165    1.34279944849303
O           0.16780620936854    2.22435925988906    2.32103284010159
O          -0.99046414716716    2.54437646969175    0.18567444293011
H          -0.99975457271367    2.12690005761828   -0.69528221975048
O           0.44604714958664   -2.32277912829954   -0.72031775460347
H           0.63157260936234   -3.26158092463869   -0.76335230201021
O          -1.04774851282940    1.27465949481970   -2.24900784632841
H          -1.05874612700519    1.92560813819422   -2.95208512787594
O           2.27455702795019    0.31484634594967    2.47500139221541
H           1.83395145259160    0.92006008769731    3.08008938585671
H           2.04693448135809    0.66665003748716    1.59735749299127
O           0.55496606910709   -1.63832324683222    1.77009578696238
H          -0.13388845743244   -0.94777321357659    1.78204317331384
H           0.59918642303658   -2.05827609169089    0.24203980378520
H           1.34995950953980   -1.16996141027961    2.09737704830658
O           1.21225066945738    0.03271900878889   -2.06075500162054
H           1.10802747366571   -0.89765138307449   -1.81421209337320
H          -0.14318138254564    0.83312586465534   -2.28200095733531
H           1.34588745347231    0.48618747551434   -1.20131668066831
N          -1.79522852640651   -0.84789762347984   -0.74051900780576
H          -1.55323191860397   -0.28783269913819    0.18698916977599
H          -2.69501439477205   -1.30765232504386   -0.65984804587040
H          -1.78343157949403   -0.15587563114037   -1.50257881197229
H          -1.01463612388288   -1.53600793158631   -0.86032536712497
