    26
        -50.46074989  Gyration_radius:  2.48773359252 Dipole_moment: 3.716
 S          -0.42115778701702    1.98707839573316    0.37156264446790
O           0.68623653160303    1.97601548782469    1.32335483528334
O           0.03937075648853    2.01917795360950   -1.00729630440662
O          -1.37411182840353    0.94213997940802    0.65578401339418
O          -1.18851369669644    3.36459441698431    0.60136599820331
H          -0.54916865842194    4.03688098233040    0.38252760144896
O          -1.13966594196440   -1.56267887790041   -1.89713506466350
H          -1.55781518335843   -2.10634288872033   -2.56584696840497
O           2.74145670492237   -1.23759558351945    0.69646469484027
H           3.53231412090029   -0.69631384081527    0.70259715333458
O          -0.65317271314106   -2.29770356204033    0.67813532206405
H          -0.99549413033084   -1.96507960101810   -0.17358108914947
H           0.12718566527001   -2.81221683835911    0.45567527928443
O           1.29285324663286   -0.33629534322350   -1.30385084567585
H           0.95003722148764    0.57398823419453   -1.21735929329374
H           2.23808519497702   -0.95541148057624   -0.11182469835129
H           0.53691344511287   -0.86404088999687   -1.60470313417981
O          -2.22776158504994    0.81671220842314   -1.82640723102840
H          -2.28128861628713    0.81800361242717   -0.85202488165567
H          -1.45366881604382    1.37962720298945   -1.98356830027229
H          -1.60631568545491   -0.68097460327189   -1.92166359316593
N           0.65464945289735   -0.48334332923764    2.14966839913052
H           0.56714632505585   -0.61458780795648    3.15114745266113
H           0.59592676141840    0.54897739551089    1.88964469826033
H           1.57507055726986   -0.83146548397099    1.77216093004190
H          -0.08911135186765   -1.01914572886733    1.63517237182773
