    26
        -50.46074995  Gyration_radius:  2.48781750033 Dipole_moment: 3.718
 S           0.40150205104311    2.00220485102714    0.30756395522954
O           0.15655521541828    1.94798278081877   -1.12480464182849
O          -0.83777239086403    2.06580038741210    1.07730043420099
O           1.27835562170575    0.96827147389087    0.80022806284880
O           1.15302094782493    3.38373019296417    0.56383567924678
H           0.56746516906479    4.04693559403525    0.20881474456365
O          -2.84140830187443   -1.15742656155840    0.34326586152840
H          -3.61158363222339   -0.60653934726604    0.19512242729029
O           1.38211510652634   -1.69497646036793   -1.59829676417198
H           1.88847593509771   -2.28638916987814   -2.15628320467480
O           0.49520059709761   -2.25590341546811    0.91222430770633
H           0.96857036823610   -1.98305269105314    0.10295744183632
H          -0.25188918793819   -2.77726801778417    0.60703400017141
O          -1.08766220975699   -0.40646227914368   -1.46556607822502
H          -0.30626158620642   -0.96131347269953   -1.61342900876334
H          -2.21532371784211   -0.93504889961369   -0.39502639360504
H          -0.74233605718566    0.50337209192952   -1.38335021572214
O           2.49627429044137    0.67169615000665   -1.51002289523585
H           1.86512327435975   -0.82181928517560   -1.60565353087164
H           1.76571911701438    1.23139866110870   -1.81667887775502
H           2.40351641823825    0.73532060872704   -0.54077174963859
N          -0.98414852568122   -0.33568458041011    2.04911025775678
H          -1.05327753812103   -0.40314026654318    3.05832864751351
H          -0.86477837123316    0.67697529685744    1.73797678221967
H          -0.18199951053227   -0.91190030065375    1.68924908082044
H          -1.84345306260151   -0.69676335116037    1.55687166754132
