    26
        -50.45793249  Gyration_radius:  2.46069447933 Dipole_moment: 5.060
 S          -0.70261917613449   -0.60727324236458   -0.40951810026599
O          -0.59203941330875   -0.95094256966263   -1.93815876592680
O           0.28456251808009   -1.44378503223154    0.24322452839415
O          -0.31835924121041    0.82177175939486   -0.31967453644832
O          -2.05834368096765   -0.80911917079054    0.03128871781899
O          -1.19679594278587   -1.28010746289954    2.57775731083560
H          -0.45412077657187   -1.77624174949314    2.21559224162574
H          -1.78607947171743   -1.15488043206798    1.81677821585033
O           2.27600051381166   -1.32233362697563   -1.40491942843468
H           1.82093387196999   -1.40178106167366   -2.24783058980784
H           1.59909194049667   -1.57340623385102   -0.72868707832696
O          -0.02841265075536    1.13119871489710    2.36892857820727
H          -0.28774781513907    1.19395094343173    1.43457585325358
H          -0.45676878680770    0.30777041845904    2.68796264868755
O           2.52356197234712    0.97624114705088    1.98117707358546
H           1.55116563937707    0.97660336678050    2.24395820521014
H           2.90524840039026    1.76539636913458    2.37048847661642
O           2.14461061811019    1.04501412499733   -0.50513341653794
H           2.36981603131306    0.12337534166788   -0.90820652325832
H           1.08673375180603    1.03544529747868   -0.47462664359451
H           2.40843539720540    1.01152069570231    0.51108375900766
N          -2.71968910535259    0.46451308059427   -2.39495128435528
H          -1.36823184148781   -0.45757940123448   -2.33932568245851
H          -2.95010450456005    0.16137441789961   -1.45112672826637
H          -2.53211750048568    1.45833892594770   -2.36556087537745
H          -3.51873072763327    0.30493536980604   -2.99509594603592
