    26
        -50.44483775  Gyration_radius:  2.51304023714 Dipole_moment: 4.668
 S           0.15165998572075    1.76219019482868    1.26211674279970
O          -0.93790522328490    1.43125185504092    2.14635402656356
O           1.40169970813045    1.09681256450137    1.65849967488905
O          -0.13655335177260    1.55033466096839   -0.14209371369086
O           0.42640861017434    3.31039994549766    1.43351298046465
H           0.39756453559430    3.39478061229703    2.38053141122417
O          -0.24351355543915   -2.11838691012575   -0.01147774281980
H          -0.39870662486045   -3.00980820579596    0.30208894090461
O           2.92151488073245   -0.69475618478218   -1.51520494416386
H           3.24611174059361   -1.42060292307662   -2.05015324661927
O          -2.44399920823228    1.03799350031976   -1.49053655511883
H          -2.06205150327266    0.76017391715684   -2.32649222287789
H          -1.70765328666439    1.43314424089765   -0.99170537135042
O           1.94061693765992   -1.13993923902764    0.80319561978810
H           1.72063982061571   -0.16679588110343    1.20920318317301
H           1.03231562964752   -1.55388662730946    0.51024218375206
H           2.45538870438359   -0.96146937043320   -0.06218657820640
O           0.39528643635802   -0.27062580837144   -2.03086706407660
H           2.02568683869111   -0.44646536009005   -1.87427153718482
H           0.01195849602925   -1.02892228167865   -1.56771138038052
H           0.23723813404116    0.48857367201345   -1.43529508935743
N          -2.15378630303906   -0.67678590757529    0.79299136064038
H          -2.53763558084773   -0.20652687916222   -0.02881645699278
H          -1.06930344307377   -1.51970029836049    0.34832062754998
H          -1.75726031235327    0.06129951735654    1.38297202674671
H          -2.91572203557835   -1.11228278398864    1.29678312436836
