    26
        -50.46074995  Gyration_radius:  2.48762004435 Dipole_moment: 3.721
 S          -1.99735408618702    0.20465842258525   -0.48281136064506
O          -2.05355403939383    1.29787665197103    0.48363309675266
O          -1.33565724385707    0.59563453763471   -1.71723145043773
O          -1.47894222550711   -1.00255038779472    0.11275224498736
O          -3.50708671762516   -0.10927139507785   -0.88446523391737
H          -3.81855652475945    0.69109766566763   -1.29808706243611
O           1.58778018208216    2.27367469458739    1.35514610815523
H           1.34677552958984    3.19026132514095    1.21289147619570
O           1.79185142161651   -1.63111297955467   -1.20905647362478
H           2.41083781326549   -2.22623407683016   -1.63354828696489
O           1.53249571872644   -1.27723456086901    1.47621305984214
H           2.29422388781698   -0.69565597356522    1.54374801175398
H           1.48886631653410   -1.53885252834700    0.53643619952364
O           1.19227384946912    1.08044189486959   -0.95375792332239
H           1.52258296538872    1.84477766234685    0.46162190946441
H           1.55405462135659    0.19001267600206   -1.08242583021851
H           0.26745325296679    1.02696523387604   -1.26288989727116
O          -0.61712053793889   -1.95890936526043   -2.17849253001422
H          -0.81937822510012   -1.05946369140096   -2.48003489770823
H           0.90109782993898   -1.81490073182820   -1.61969095788581
H          -1.02616557030754   -1.96946553735291   -1.29261531824554
N          -0.25824396240860    0.57218230795858    2.21089171200274
H          -1.06733155782380    0.81241052071796    1.55957062317526
H           0.19889907706196   -0.31874650809831    1.89102037714321
H           0.46257086794323    1.32993514110590    2.07965744309292
H          -0.57237266284655    0.49246902151512    3.17152500060648
