    26
        -50.46074934  Gyration_radius:  2.48775808518 Dipole_moment: 3.721
 S          -1.20202570698953   -0.53350182138150    1.59339096300110
O           0.10481443633852   -0.38893192174989    2.21469651619035
O          -1.88225771179642    0.74878586320008    1.43395047133760
O          -1.19448865897425   -1.28579508898114    0.36265153921763
O          -2.07855393161683   -1.37446217557321    2.62462272452550
H          -2.05068547820206   -0.87062991475323    3.43337698561573
O           2.15171658304172   -1.36309978293203   -0.92624111562413
H           2.89979593491596   -1.86420827878707   -1.25300153393146
O           0.31604452645720    2.93585419899794   -0.88997881074016
H           0.22877911222157    3.65253961401191   -0.25980014809914
O           0.20198125291773   -0.24189732521568   -2.45903672623740
H           0.73401295846769    0.52141673930832   -2.69864898138319
H           0.78185575135535   -0.79764264548342   -1.90392540280238
O           1.52824334627579    1.00197961968867    0.41306937460195
H           0.85090999405469    2.24096895491025   -0.42311674165563
H           1.02674112512463    0.59460171693830    1.14550608062466
H           1.88723019339724    0.25685042702137   -0.09314179863842
O           0.95732343194769   -2.64581018990564    1.01780499833228
H           0.06946016502811   -2.48581363968075    0.64607423704908
H           1.74435948122828   -1.91114514470884   -0.19868108504584
H           0.99758406957564   -1.98552515898671    1.72730571743225
N          -1.64137536075451    1.16026855751129   -1.11655854741152
H          -2.50467408509880    1.31241319097313   -1.62591108312340
H          -1.83247799112728    0.93865386892881   -0.09135815319593
H          -1.08451365771475    0.38003903446254   -1.54787348460151
H          -1.00979982007461    2.00409129217151   -1.12517601543839
