    26
        -50.46074946  Gyration_radius:  2.48785053195 Dipole_moment: 3.721
 S          -1.12435505608291   -0.20160364344606    1.72181181132652
O           0.22252464470360   -0.02470613921612    2.24079794164604
O          -1.75776070603304    1.07042101488932    1.38549418349883
O          -1.22309268378974   -1.14591652442152    0.63589477027919
O          -1.97217832328912   -0.81409761376872    2.92391490728799
H          -1.87420715055778   -0.18576030131606    3.63404198617583
O           2.03398036773931   -1.60441776714234   -0.79671835954611
H           2.74075234865337   -2.18894937039307   -1.07294394030658
O           0.38275611239288    2.72999022028440   -1.38478604752520
H           0.36257566690887    3.54385538146457   -0.87919879651579
O           0.04312198285282   -0.65465384843438   -2.39117788008359
H           0.59077137263560    0.03012030424841   -2.78394022235649
H           0.63228714737559   -1.13973059950398   -1.78222562784433
O           0.90617077843502   -2.48791300700795    1.39368440966134
H           0.00487923084438   -2.34597729055672    1.04780830116786
H           1.64854326882123   -2.00410342265426    0.03239159599584
H           1.01665579164414   -1.72305313532576    1.98002831807793
O           1.58884846868839    0.97722077253186    0.15838546666646
H           1.11672344737313    0.72200149479895    0.97436526684292
H           1.88599864232776    0.14167673577028   -0.23396095751625
H           0.91535443192056    2.09514447373333   -0.83699356631070
N          -1.65564587707182    1.04210423872153   -1.20708005518482
H          -2.54143470165968    1.15140950797255   -1.68802188015719
H          -1.15856182785399    0.17417969525321   -1.53030612185951
H          -0.99181196815682    1.83995328473881   -1.39072205579293
H          -1.79289537881995    1.00280552876677   -0.15054344761514
