    26
        -50.47096493  Gyration_radius:  2.40585267906 Dipole_moment: 5.282
 S           0.88343867706595    0.26868641920574   -1.05230579834468
O           1.53989771430432   -0.29275263574827   -2.33424197601241
O          -0.49059580760511    0.66267688188758   -1.37634094572879
O           0.88528406081574   -0.80010779848727   -0.04971771252532
O           1.66572105225339    1.40769465615295   -0.60627320141295
O          -2.01330124030063   -1.48052728977317   -1.34977530694951
H          -2.06842276560584   -1.63744547513110   -0.40034872565026
H          -1.58552690596460   -0.60040319754375   -1.42665163764507
O           2.16153638221756    0.68448712868244    1.83956395762213
H           2.13753317974885    1.08885357607478    0.93628715746596
H           2.17228706574045   -0.25827656516534    1.63853718534652
O          -1.15153558836347   -1.25684958958137    1.41323802182814
H          -0.38512392282712   -1.12396796236101    0.77862575371817
H          -0.96203388519632   -2.07323331017556    1.87895102639027
O          -0.62455985371935    2.71457856657266    0.20313727605805
H          -0.76354406904321    2.00734334847902   -0.47240888082983
H           0.28276864791661    2.99138533987280    0.02753795034483
O           0.05794702085293   -2.39796930918169   -2.72320766039761
H          -0.74353754466191   -2.19097941383492   -2.17997374182728
H          -0.23852737429329   -2.40268862816120   -3.63601666757544
H           1.04911226721622   -1.14220657091858   -2.50035418188458
N          -0.37942713147623    1.17045383398851    2.31051989764873
H          -0.67279775577163    1.54158032054805    3.20746466307655
H          -0.85054704136299    0.26341361771229    2.09107082700585
H          -0.58292646923644    1.85960094409212    1.51401029537297
H           0.67688129732932    0.99665312288815    2.26867241488375
