    26
        -50.46975393  Gyration_radius:  2.44513609541 Dipole_moment: 3.724
 S           0.49064904959634    1.68689178950998    0.72119908295176
O          -0.13576632698418    2.71270891554936   -0.07548023367044
O          -0.47444317954409    0.87422693979721    1.46677553745372
O           1.40659650022089    0.84539452411832   -0.02402340377822
O           1.33841739495188    2.44602425722206    1.82716663154443
H           1.32150938829996    3.33043801983491    1.47873897619924
O          -0.24911583923236   -2.34572183528630   -1.10010571999870
H          -0.31446982729128   -3.29620284672946   -1.19488318264462
O          -1.48181627235346    1.48115187145966   -2.02954307452422
H          -1.06717837994635    2.11226611873632   -1.40583211089393
O           0.60602979328780   -1.04641834090223    2.95809227160044
H           1.21514943032210   -0.63731021000358    3.57474591402166
H           0.15741257324422   -0.31124865737570    2.49228179637477
O           0.67119438220265    0.00806264343824   -2.50246901009140
H           0.45094076492268   -0.90830326250514   -2.29165864930523
H          -0.72029273856428    1.03998500462313   -2.47351059934308
H           1.10686410238068    0.35903590046790   -1.70570551667032
O           1.64373216440334   -1.75870974494687    0.55519512052591
H           1.74386664338916   -0.81633157627534    0.31887903319973
H           1.31407051520502   -1.74178222999754    1.47436031968246
H           0.51213780254545   -2.17860021010608   -0.46156053135591
N          -1.93373090680509   -0.39405871894175   -0.31373719753267
H          -1.89156615127256    0.36131115051917   -1.09791255493379
H          -1.42781809021237    0.04618360189291    0.49791575674486
H          -2.88660216856623   -0.63453589705202   -0.06447278168417
H          -1.39577060420100   -1.23445721704806   -0.62445586386830
