    26
        -50.46418315  Gyration_radius:  2.53335839572 Dipole_moment: 4.749
 S          -0.24207075171440   -0.84206384741681    0.03920150232810
O           0.28536360846906   -0.92677629448484   -1.44050803083071
O          -1.53558308134300   -1.46492473004083    0.11603407462196
O           0.79219553923542   -1.47851202116975    0.83181534370816
O          -0.31053391811417    0.60277503860115    0.34465655207253
O          -3.31541616012909   -0.06104669056644   -1.26944335325815
H          -3.42628185203917    0.63428359020906   -0.59641067128577
H          -2.79900200006781   -0.74836792494639   -0.79943961648935
O           2.91983483069494   -0.79064589347650   -0.84648525356906
H           2.96873830278270   -1.49720238747135   -0.19413356908423
H           2.03788066674082   -0.90001649723755   -1.24699235201786
O           2.06005551723336   -0.38416314264131    2.85732490848500
H           1.48048096825845   -0.35558491900222    3.61972400288950
H           1.59433866108696   -0.93054604918873    2.18073312685753
O          -2.83078984380131    1.21926350312940    1.09167066211620
H          -3.05598946208184    0.44545380643488    1.61275718643661
H          -1.89882080464074    1.09549855315542    0.83167729920887
O          -1.32345678346314    0.48334864656843   -2.82363093898085
H          -1.50838776845273    0.06045288283424   -3.66487784109277
H          -2.15938518758403    0.38117331303545   -2.27497529802463
H          -0.33200049288422   -0.35228419264948   -1.99870307075458
N           2.14422065069932    1.20146209653459    0.72588763121381
H           2.45393874746165    2.16120388277875    0.62182179237451
H           2.29236208300214    0.82572020910193    1.68905178950105
H           1.08661474957697    1.08142742961709    0.53911599257079
H           2.62169378108276    0.54007162825386    0.05412814099080
