    26
        -50.45071866  Gyration_radius:  2.45635470682 Dipole_moment: 5.441
 S          -1.69782477225059    0.97541750822209    0.18209100053196
O          -0.62562621746516    1.86521733505235   -0.19933759648621
O          -2.22658936667962    0.16232316971534   -0.88859127617398
O          -1.32254441883550    0.15123590101384    1.34119665400184
O          -2.89319183375918    1.88706848219305    0.67889505185913
H          -3.63852169991386    1.33021312682971    0.48242114636195
O           2.34507110430272   -0.35070114651423    0.73309273997528
H           3.13880382987079   -0.62537318980412    1.19405558978079
O          -0.41269548177719   -2.81269701256414   -1.21091814481650
H          -1.32470626500896   -3.10893344894609   -1.18323703141454
O           1.36490549573670    0.79741052949024   -1.70452526147062
H           1.89625379262129    0.37937513939340   -1.01634776960134
H           0.69664387935250    1.33205805512113   -1.24073302474369
O           0.21190839633456   -1.75372498539162    0.95615305778514
H           1.10627149647823   -1.28467784549154    0.83126304751153
H          -0.47934958962094   -0.97985364851767    1.13486652980974
H          -0.04628192947165   -2.22838707766528    0.03441599172855
O          -0.53879896238003   -0.78167460353462   -2.73440431976690
H           0.25109285088078   -0.22344707288493   -2.57019104784769
H          -0.39618181495324   -2.05446995670853   -1.89778493635097
H          -1.25544689015225   -0.35717617588956   -2.22325570612926
N           1.16092279709967    1.61867056835623    1.93884293694204
H           1.96660949960916    0.45998915804136    1.22893545899276
H           0.50595460083740    1.85893319624920    1.18974896986805
H           0.59479731177590    1.27299724558303    2.70439031462059
H           1.61852421736802    2.47020675864713    2.23895761503118
