    26
        -50.45071905  Gyration_radius:  2.45393457401 Dipole_moment: 5.406
 S          -1.05962032965395   -1.47379378740440    0.73903818882401
O           0.16819723567008   -1.99275148249695    1.29652087343499
O          -1.48529491249497   -0.20347538931377    1.27935499858888
O          -1.00374740042228   -1.43873570332236   -0.73037792527414
O          -2.18805345107823   -2.52507658237086    1.09713025297565
H          -1.68019618118169   -3.32777411016438    1.13983990526408
O           2.94704547071289   -0.82224665761346   -0.37630069783435
H           3.06679066135981   -1.77308414554718   -0.33121352872157
O           0.10735712579113    2.09454157776883   -1.32382211190176
H           0.15526262841731    2.74139042947095   -2.02898635757120
O           0.40456793316603    1.73411213319486    1.50415879673632
H           0.42233070472889    2.06252713146827    0.59722947667519
H          -0.35304686149259    1.12515717703535    1.55491392396881
O           2.11106345078692   -0.27969407190062    1.96409635285453
H           2.70968183413094   -0.53692752726074    0.57630303481368
H           1.62988794896768    0.57481784742237    1.93688696785043
H           1.41206897455767   -0.96125742628757    1.92833694650826
O           0.93827836141919   -0.29172885092328   -1.75215058078687
H           0.12994166644581   -0.82727858229816   -1.34127923213365
H           0.70592592734699    0.68863033161727   -1.60857690269148
H           1.81327404940507   -0.51409587147920   -1.18086174691886
N          -2.30297009459740    1.18764866500011   -1.00685110816892
H          -2.49764538053932    0.46326890591651   -1.68764632506139
H          -2.14786675780182    0.70448901085064   -0.11788135262388
H          -0.87439544213567    1.82662480338619   -1.21865759156517
H          -3.12883717150985    1.76471221525015   -0.90920427724201
