    26
        -50.46995613  Gyration_radius:  2.53280623684 Dipole_moment: 3.471
 S          -0.62014197547943   -0.17145787694842   -0.84268475902334
O          -1.85487377141552   -0.36744480248724   -0.08546773215176
O          -0.98197744190865    0.23863528408875   -2.28852310457397
O           0.16568343436221    0.92964386352261   -0.25024657150487
O           0.17389188856229   -1.37891679132097   -0.92176488989594
O          -0.81120926169172   -2.17074266159490    1.52810902211491
H          -1.40454333301793   -1.56300998402429    1.03407034787382
H          -0.42165793450776   -2.71067411166106    0.83187770813973
O           3.40373659030738   -1.11274633457610    0.96566712032688
H           3.22280798003254   -0.74997584084202    0.05745807243793
H           3.56845151514586   -2.04896172987882    0.84160919745120
O           2.51336178398096   -0.24121873257495   -1.34923476083359
H           2.19654426532716    0.66381995961803   -1.27613467813294
H           1.69433636734117   -0.78128117020447   -1.33563975697672
O          -2.11752571762494    2.19678233557017    0.52207194237897
H          -2.26052945562385    1.23083415496404    0.50250899010410
H          -1.16115839824055    2.27511505425547    0.40703886688572
O          -2.70819256065805    2.16629914014994   -2.05716453303441
H          -3.58598490741952    1.78747198938090   -2.14033845728606
H          -2.58256266663345    2.37091814163305   -1.09710831537853
H          -1.61942756652869    1.00962915613840   -2.27204463860237
N           1.04524808157691   -0.30878023706825    1.87599813468734
H           0.73785873428005    0.30554745519670    1.06326279281844
H           2.01338104236661   -0.66895202987684    1.64183121998758
H           1.04487648843290    0.20942565720826    2.74842198578345
H           0.34960681890417   -1.10995987855454    1.89642676641665
