    26
        -50.45071992  Gyration_radius:  2.45316054005 Dipole_moment: 5.447
 S           1.62429514716141   -0.85769767179281   -0.67781318788945
O           1.52978767290365   -0.97937289909123    0.75830265101638
O           0.76306889982812   -1.74648574292211   -1.42323403044053
O           1.44942148314015    0.53734802396847   -1.11072819222571
O           3.10887820372023   -1.24124442804458   -1.07191151972673
H           2.98814316039033   -1.54224428621945   -1.96580968520116
O          -2.36139088215820   -0.41604657596780   -1.93330511411083
H          -2.06864777498904   -0.71672566497504   -2.79609500872669
O          -1.06473179669509    1.74828260850722    1.39940280673006
H          -1.43029172984544    2.56728170308709    1.73641480366956
O          -0.96475539821461   -1.08389081152172    1.82887264544362
H          -0.02253193903933   -1.13510655650051    1.59042273589475
H          -1.18741821242061   -0.14524513441606    1.83566544146584
O          -0.86745091032142    1.41076039713744   -1.13390736582462
H          -1.04993729176943    1.55880587502550   -0.14391008702420
H           0.11985851967153    1.04715056245735   -1.17935978925832
H          -1.52435626055565    0.64309976334309   -1.48288978418908
O          -1.64928774299605   -2.34420762647033   -0.43463391936311
H          -2.19239867599800   -1.20424910416313   -1.30451574670554
H          -0.73707374869492   -2.34152441229734   -0.78420717032440
H          -1.56631068318924   -2.01592326944939    0.48609344053265
N           1.52225128377091    1.69075649814950    1.59614931482716
H           1.94427396121881    2.19846363880373    0.82788368876778
H           2.04209246888258    1.89741213101061    2.43975368925057
H          -0.05517855786090    1.77256588701300    1.56174135671639
H           1.64969078405495    0.69803707533130    1.38161802670113
