    26
        -50.45071971  Gyration_radius:  2.45471019066 Dipole_moment: 5.436
 S           1.87484170550592    0.48179714125231   -0.32119378167083
O           1.55534945760254    0.55302008783603   -1.72827787938701
O           1.21758367506016    1.46847336941992    0.50417550863572
O           1.66969351762015   -0.87724953954508    0.20277376765966
O           3.43058333771191    0.75133622960787   -0.20458024501175
H           3.73644175546395    0.41050542975886   -1.03801346599547
O          -1.80401894589536   -0.60003417268301    1.59301130564451
H          -2.39868449024731   -1.06218135037225    2.18524025656155
O          -1.27738023789176   -1.29230965133337   -2.49308821805437
H          -0.62578786811184   -1.57828812257049   -3.13655101698870
O          -1.44457268525785    1.82431500992548    0.10571000704675
H          -0.49284924520293    1.86294042203262    0.30624733335123
H          -1.79527451455390    1.08619033794616    0.61841162217840
O          -0.92861177503454    1.22617139008630   -2.45427397864356
H          -1.24809044850929   -0.27016023400615   -2.51730694533228
H          -1.28433470677809    1.57817641875231   -1.61039728223915
H           0.03415178337308    1.14884023823575   -2.30667766371997
O          -0.53794115880727   -1.92442438175252   -0.19933306066437
H          -0.86895510985170   -1.67229810782591   -1.18376706288148
H           0.42381311626047   -1.51927503753433   -0.05940861302858
H          -1.12999670423140   -1.43605538229972    0.46883675865634
N           0.44977878977528   -0.02367880207788    2.74289278789436
H          -0.96655520296758   -0.35580075735381    2.12720243334835
H           1.06458130740405   -0.82868320817893    2.73444468943559
H           0.80713601313351    0.61157064337491    2.02418918625420
H           0.53909865444063    0.43710205930183    3.63973355694663
