    26
        -50.46975367  Gyration_radius:  2.44536561843 Dipole_moment: 3.733
 S          -1.34150029340324   -0.83129037518587    1.05926402059304
O          -0.03173657133993   -0.59308270747249    1.67210901711770
O          -2.31601335408425    0.17249120336184    1.40904982213665
O          -1.21088144755908   -1.04708009704341   -0.36862490063989
O          -1.86031134865529   -2.18807417752654    1.69789651280199
H          -2.74775663152933   -1.93902481408085    1.93050858664276
O          -1.55051197164746    2.45839202302211    0.25434091118477
H          -1.99488331900641    1.74226750032530    0.75333297859019
O           1.67698420189190    0.88863897248967   -1.77954677517864
H           2.47902818102592    0.99435537431144   -2.29162035816791
O           1.83722996838398   -2.38668572382289    1.06332378793510
H           1.52489852285762   -3.24941610489040    1.34035928260172
H           1.17359558804828   -1.74211907801706    1.38401498324981
O           1.17048602132767   -1.62208529081811   -1.45249694072423
H           1.52173713705116   -0.10385617080574   -1.70183054655173
H           1.62093716138996   -1.96789736533852   -0.65794220477813
H           0.23594502444755   -1.53838775551179   -1.18140503449406
O          -1.19420425830558    1.12103879459119   -2.00664703079321
H          -1.59855123479864    2.16670936832947   -0.68607923051052
H          -0.25127496544821    1.14422889297200   -2.21416786019091
H          -1.33727836218303    0.27385359294776   -1.54872897331649
N           0.87010747141016    1.66484115637005    0.67260117568786
H           1.29177030685929    1.45362832939139   -0.26000338167477
H           0.63093087612117    0.75543225047488    1.14612685626419
H           1.49471680303245    2.22218269914018    1.24458849036169
H          -0.09346351592125    2.15093950275694    0.52157684182812
