    26
        -50.46162477  Gyration_radius:  2.55224909722 Dipole_moment: 4.678
 S          -0.79416820099242    1.49862322202926    1.48988372030488
O           0.43587520958173    1.87314334549076    0.78699322233747
O          -1.92655482148966    1.41285745642410    0.58407858966104
O          -0.58855486849099    0.32407161755471    2.30421563555916
O          -1.11984014954246    2.69020085473952    2.48706900033060
H          -1.45608469780060    3.38818520572849    1.93162667399206
O          -0.42137029173642   -2.14528278621792   -0.11925816727742
H          -0.43246756811790   -3.09184889391382    0.03025597341248
O           2.84953208129055   -0.61731972694825   -1.69319959689997
H           3.35010532307303   -1.33965450868614   -2.07374103398749
O          -0.60646996232897    1.58426532228202   -1.74629503511988
H           0.14347691048343    1.99244741287496   -1.29979690521422
H          -1.27019458973685    1.49512306528762   -1.03872101750546
O          -2.43757567885115   -1.15391459908370    1.17342761356616
H          -1.25556496128696   -1.79190581125525    0.31268355147300
H          -1.85246712195927   -0.78197968575553    1.86298005170853
H          -2.71751928002972   -0.35703205206534    0.69968315796563
O           0.36830480103103   -0.80887452489115   -2.48682589558592
H          -0.03978608064789   -1.36026414513959   -1.80458551179028
H          -0.03401856898795    0.08004884243857   -2.37471846682425
H           1.95258807498611   -0.63831529349346   -2.13247289192193
N           1.58785915076367   -0.46066605065783    0.63161066979723
H           0.80314171917402   -1.12808140041305    0.45312719711517
H           2.03798475128527   -0.67701918806536    1.51479343121760
H           2.24959699987749   -0.50696738135285   -0.18913611347593
H           1.17417183079281    0.52015973309291    0.69632212718673
