    26
        -50.46162468  Gyration_radius:  2.55229575391 Dipole_moment: 4.679
 S          -1.43353328552831    1.56748419414495   -0.76518495135191
O          -0.00955542272009    1.90902919784023   -0.82056926162713
O          -1.75798531299742    0.46703453437312   -1.65617287400222
O          -1.86910236178117    1.38191303931492    0.59889809492527
O          -2.21803983931220    2.82946625417327   -1.32392628694570
H          -2.08180648447928    2.80309575188363   -2.26710858108624
O          -0.41559739481853   -1.67043942154706    1.35323394239396
H          -0.58941396502534   -2.20661790105282    2.12830472200675
O           3.22724865116946   -0.22892398302075    0.94791405068001
H           3.79969846871495   -0.72521687523351    1.53374989003337
O           0.73436603326605   -0.29041412062501   -2.30165275869385
H           1.06992738461664    0.57649288847395   -2.04764068515521
H          -0.23002957136098   -0.19866843123760   -2.19897791101373
O          -2.71581208563356   -1.08453692595098    0.31141382814244
H          -2.66207918785287   -0.16296944272602    0.63390081961428
H          -2.57878384301591   -0.96993548492947   -0.64040371121164
H          -1.30729526524123   -1.52917887940031    0.91479318537848
O           1.77471379328407   -1.91006306951007   -0.42566328746758
H           2.80073586651346   -0.89875161836879    0.34179516544838
H           0.99073594937634   -2.02876981032790    0.12870205137184
H           1.45819397103272   -1.42613107105616   -1.21957806926708
N           0.80895381380935    0.76628407039117    1.37531786463172
H           1.83181068811482    0.51336563935777    1.31625967639673
H           0.51993688326986    1.27655747007607    0.48455879348468
H           0.25846524248022   -0.12095840278867    1.42910871174379
H           0.59424728413372    1.36085238777265    2.16892758158508
