    26
        -50.46162472  Gyration_radius:  2.55221210784 Dipole_moment: 4.679
 S          -0.39837986012125   -0.33226741362467    2.19715429190122
O          -0.49704592229208   -1.51331517583299    1.33539433919018
O           0.96032407264625    0.17836190447692    2.25627733438318
O          -1.39321769901269    0.65248748782280    1.84283479991477
O          -0.74716911277419   -0.82064544736031    3.66694782238407
H           0.02638232949492   -1.29724026290986    3.95539413325212
O          -0.09031445457516    1.87671809956701   -1.12417105329377
H          -0.39203405851334    2.65105045841533   -1.60147235057563
O          -0.47412106626486   -1.60251861468996   -2.92789648670908
H          -0.61632013369389   -1.42891237216208   -3.85888647324717
O           2.04221248890962   -1.29317079890891    0.29007760907786
H           1.33345542339516   -1.94050987733886    0.37366515270613
H           1.86068801500717   -0.66401286149006    1.01144759674859
O           0.28368459688590    2.60510384494151    1.33510934832996
H           0.97931077535603    2.03783187923743    1.69871163969062
H           0.13370539797922    2.19711292616896   -0.19977187306221
H          -0.52609375526699    2.14193014375879    1.62821082791395
O           1.56857478169105   -0.19197974288318   -2.11575737692428
H           1.89586940048552   -0.61656411673214   -1.29281246110896
H           0.39342046948449   -1.16666280459571   -2.69259030516190
H           1.16351695797644    0.63861305856424   -1.82927584576015
N          -1.52152674196280   -0.42210229406059   -0.79953876234326
H          -1.13194770208774   -0.92209645223615    0.05808641716190
H          -1.27682450102029   -0.97277617743756   -1.66598011550118
H          -2.52168111176034   -0.30534031006048   -0.67503065994919
H          -1.05446859960214    0.51090491958265   -0.86612754902726
