    26
        -50.47391678  Gyration_radius:  2.44039962508 Dipole_moment: 2.093
 S           1.66858998685472    0.61261160503668   -0.75688704959186
O           1.61905041352135   -0.66091081582035   -0.05278951172216
O           1.43143114852900    0.50669008148200   -2.17851152930587
O           0.81487227132475    1.59495819129560   -0.10534855537728
O           3.15633239931774    1.13450132935829   -0.61457274607465
H           3.29316334499786    1.47882844062780   -1.48948386745599
O          -0.40129822016414   -2.32405542911699   -0.89692358878677
H           0.43018086696966   -1.88606214584574   -0.65161662274226
O          -0.00413915362942    2.02046682978666    2.37948323197399
H           0.40623862167708    2.04295788366203    1.48969797368009
O          -1.90072092647071   -1.37856342506083    1.08697991353567
H          -2.07557756303317   -0.52401654706299    0.63108253590013
H          -1.48935924705864   -1.93601113919827    0.38487551883364
O          -1.77777795700832    0.87843665154239   -0.34520754198558
H          -0.91564448038950    2.29166186244372    2.24437178677193
H          -0.86974572821901    1.22114376155561   -0.25611424855270
H          -1.81141007765450    0.51824048149652   -1.24310714361524
O          -0.99291870147858   -0.32345940586812   -2.73121659502426
H          -1.12672088564665   -0.32418599108381   -3.68017155709654
H          -0.07718732591860    0.01013186402479   -2.57978660719122
H          -0.73910617290737   -1.81550894576666   -1.65084767159968
N           0.28600958930857   -0.63663388198735    2.23583586250583
H          -0.67592456250273   -1.01088698073978    1.87910236326691
H           0.17354278108684    0.37244334263574    2.49829447136591
H           0.65359031467738   -1.18993509280885    3.00109590645094
H           0.92452927382917   -0.67284252466592    1.40176529181939
