    26
        -50.46162460  Gyration_radius:  2.55236668321 Dipole_moment: 4.674
 S           0.97038833386451    1.24550445710947    1.61417373477376
O           1.73446627724951    1.68339427981361    0.45895074340075
O          -0.46858401335795    1.44303237533418    1.41987416418027
O           1.25475161694889   -0.10337789515088    2.04392767946396
O           1.39563908577130    2.20097288496653    2.80854328553296
H           1.40385867943356    3.07578062274277    2.42984909439327
O           0.72417725948261   -1.86419768455390   -0.89213803802831
H           0.94903292872256   -2.78176381942848   -1.05321441693040
O          -3.09689188722977   -0.91066344258731   -0.97338855841294
H          -3.56233124436448   -1.62349914104679   -1.41191643564468
O          -0.29293734168548    2.06206819163207   -1.25814903329023
H           0.57301556216334    1.98170744932432   -0.81916053129752
H          -0.91071037667597    2.13788955545027   -0.52256018928412
O          -1.02655498176296   -0.24752737823559   -2.42123292346607
H          -0.32593155714249   -0.82166629033115   -2.08150336115444
H          -2.40742573034253   -0.58864302803966   -1.62056444645773
H          -0.77054002267457    0.66061509467280   -2.14848592259699
O           2.84987939409481   -0.72306775368308    0.05572812923979
H           1.57940731720842   -1.41992414815416   -0.61181712008362
H           2.81400893216027    0.20972941661140   -0.20201341138323
H           2.47173410909755   -0.69678239656357    0.95710770775583
N          -1.18250742906521   -1.00047955754762    0.85643623450133
H          -1.26967795622479   -1.53574404038365    1.71395006602638
H          -0.39815622429983   -1.37456538605850    0.27513430731092
H          -2.06028287439245   -1.01687143692506    0.27079218898983
H          -0.94782786694001    0.00807910103879    1.11167705241832
