    26
        -50.46162481  Gyration_radius:  2.55232140094 Dipole_moment: 4.677
 S           0.57504753073698    2.13492148976032    0.45719970654762
O          -0.28337691193420    2.34215777163581   -0.69620247187202
O          -0.11670869772702    1.40758274460800    1.52482652554693
O           1.84777220103614    1.52394352786741    0.15414375438861
O           0.89172776585726    3.57998064482173    1.03314280252829
H           0.05432265539590    4.03543332863109    1.02423913020232
O           0.83425394528993   -1.33075089128158   -1.52592134036080
H           1.39678301966041   -1.93273136678459   -2.01542632066712
O          -0.98573752476183   -2.76458203809696    1.65906071883667
H          -0.95349680475862   -3.72006890119715    1.60285730482769
O          -2.31827443542558    0.74090359765531    0.00872414093656
H          -1.70481587996713    1.35073211238898   -0.43957783384506
H          -2.04735377572994    0.78907921652560    0.93210183135096
O           1.36249308277482    1.05843553211609   -2.38160726687538
H           1.85364208403230    1.27601946872127   -1.56455981244496
H           0.98715429622424   -0.42542589554784   -1.93121930458288
H           0.55712297806495    1.58560810328727   -2.27546653102479
O          -1.80765018535176   -1.81898708196472   -0.63296372691135
H          -0.98574366774982   -1.69385430178562   -1.12777223838912
H          -1.44000282893308   -2.45182445298611    0.82617116486363
H          -2.14510689195231   -0.91290066630271   -0.46047019859215
N           0.90072349020288   -0.96749921104499    1.17643723488135
H           1.81961229844143   -1.00968611364765    1.60457696931888
H           0.24847919021450   -1.71865397152459    1.52857675697055
H           0.47836139206758   -0.00964640382040    1.38024071500493
H           0.98077168413253   -1.06818623200579    0.13888828931530
