    26
        -50.47391510  Gyration_radius:  2.44036032837 Dipole_moment: 2.067
 S           1.85240335520978   -0.36984389325517   -0.40186248414634
O           1.26579894441652   -0.88661071152255    0.82722091030255
O           1.76162357343964   -1.28038419440254   -1.52052486466043
O           1.33804341012517    0.95861083364948   -0.69742402044327
O           3.40128122723246   -0.20788323236020   -0.11725597817167
H           3.75294110486267   -0.58945161126683   -0.91312905834898
O           0.45882399192343    2.99733091162755    0.75061056947442
H           0.94700912094669    2.37404053111460    0.17292838598276
O          -1.10806357127970   -2.21686139649279    0.43977656928783
H          -0.20891104025516   -1.91725162629305    0.65259448688534
O          -2.38444347125385    0.04814055266622    1.00342577377195
H          -2.18510823985027    0.45214802493338    0.12842147836517
H          -2.12381654840928   -0.89618684203998    0.88785286602758
O          -1.29104568519851    0.84641125458033   -1.30473062724654
H          -0.33747525401405    0.95983320329514   -1.13791260194877
H          -1.34858407727844    0.02871416899026   -1.81951371467692
H          -0.26787131686393    3.32332031853346    0.21372668348373
O          -0.71709890721939   -1.70544864029041   -2.26247787901783
H          -1.14800221576161   -2.22144801373759   -0.52951174912364
H          -0.73041748632157   -2.26828334024691   -3.03793670832684
H           0.23276736681216   -1.56252583856518   -2.03914048966442
N          -0.22650329112451    0.83703508998445    2.17544113894374
H           0.00698260128348    1.78598724797338    1.79517643986060
H           0.44774637736496    0.15439893775665    1.74625351192704
H          -0.17805937070129    0.81042010279712    3.18725447865847
H          -1.21002059811481    0.54578814257380    1.80073687281001
