    26
        -50.47391573  Gyration_radius:  2.44039831384 Dipole_moment: 2.080
 S           0.13690937895724   -1.90662122410849   -0.27993788673763
O          -1.16337410407385   -1.25626442539846   -0.36575288690624
O           0.83235835066609   -1.99423973412983   -1.54378089441670
O           0.94029786311027   -1.31212350547570    0.77766383791825
O          -0.14773516773324   -3.40377569318617    0.14846651784376
H           0.45254162016953   -3.85619169951462   -0.43260948031384
O          -1.19420595522609    0.94970684598300   -2.00598409994208
H          -1.32193209433556    0.10260249452698   -1.54828040155928
O           0.42296223551397   -0.12564812025629    3.09106673928337
H           0.69446640507548   -0.71806723858158    2.35905795308430
O          -0.78882101397964    2.46011164122951    0.14641491643797
H           0.16235449855676    2.21668314737790    0.21491865633456
H          -1.05452040079812    2.11075921714446   -0.73689765193427
O           1.47586996781050    0.36177797527124   -2.49735643946315
H          -0.29890666149652    0.90160253578024   -2.37658223707946
H           1.98407221095939    0.25716122721859   -3.30310382478993
H           1.27674111495220   -0.54850072206135   -2.17423031313969
O           1.58857663264396    1.23209147863193    0.14578315615335
H           1.75572661921427    1.17299669742486   -0.80581566505336
H           1.07854065125751    0.57628517450234    3.10452035766827
H           1.42995166587801    0.31061597037030    0.42090159710814
N          -1.68064680372000    0.49230262783434    1.55523894465707
H          -1.57702721260942   -0.27401781667937    0.84338808269381
H          -0.98012742219018    0.30936039665448    2.31390760913711
H          -1.39636878841961    1.40968030142041    1.03544306782727
H          -2.62770362020739    0.53171246803267    1.91356034519526
