    26
        -50.45376627  Gyration_radius:  2.45979249795 Dipole_moment: 4.208
 S          -0.13457133001897    1.91758062693852    0.48305632170112
O           0.70501534167320    0.74939108347622    0.51929127611071
O          -1.27303887351318    1.66839913774839   -0.52947049985306
O          -0.66901002510116    2.32464076386310    1.73988322956827
O           0.64643126595360    3.09011404433045   -0.14942251031216
H           0.93658004681665    2.72154505157255   -1.02568763674450
O          -0.97724388301706   -2.13093709099811    0.91990204758754
H          -1.68836597139830   -2.73760574102518    1.13101118585834
O           1.34954934190229   -0.88967329513023   -2.21937559544287
H           1.92024573914441   -1.34752708194761   -2.83780044493726
O           1.00373314936290    1.81184580588066   -2.38069860976595
H           1.24450592020167    0.87069040975027   -2.25650770918518
H           0.10095119755544    1.81541107536091   -2.70981043316583
O          -1.23569473374363   -0.71096183467414   -1.34704187554141
H          -1.17884506595767   -1.25318122688388   -0.52822926018664
H          -1.28704130325532    0.68738669955572   -0.86335091617990
H          -0.37191396320435   -0.81669607654342   -1.78513438053955
O           1.70853152566699   -1.69980745344809    0.24237997705349
H           1.56881227305559   -0.78620046534482    0.54243784281166
H           0.88384172322251   -2.14706291853478    0.48211542139503
H           1.58819637826874   -1.22109843027317   -1.30737500853873
N          -0.99586603973017   -0.32714730464787    2.86642652796492
H          -0.88376240878972    0.59149996332817    2.43797252404639
H          -0.96826293271844   -1.43561905521477    1.64528803211663
H          -0.18556174837189   -0.46813464157016    3.45834806753366
H          -1.80721562401196   -0.27685205556084    3.47179243664807
