    26
        -50.46282773  Gyration_radius:  2.50883744517 Dipole_moment: 5.077
 S          -0.15084156651880   -1.14619845083389    1.77650762226279
O          -0.56042021549145   -0.02581165708855    2.59022603126850
O          -1.28274662865503   -1.79553804976650    1.11547901448107
O           0.89496744832874   -0.82954085696529    0.81871271461489
O           0.46577382612751   -2.21465851672439    2.76991325118848
H          -0.09689897427289   -2.09052132326041    3.52646036201066
O          -0.06330047855873   -1.65401406368944   -2.81946673978397
H           0.31965260112372   -2.48880746255814   -2.54422484933769
O          -0.83170584947816    1.85548995370353   -0.98805760571576
H          -1.24363001164607    2.67230978030582   -1.27157670846505
O           2.53996297381740    1.28332850786647    1.09205878271296
H           2.89465623792714    1.31416936440111    0.19977607401050
H           2.05998305363040    0.43567949749069    1.15285775115861
O           0.02322230847430    2.25858108615142    1.38388363946142
H          -0.27577539332683    1.49691151464214    1.92389055463064
H           0.99519199899912    2.15516427075133    1.35024321597735
H          -0.50504476080786    2.02765533592460   -0.03954916635758
O           1.34190648924240    0.21536191473093   -1.62325900012417
H           1.27805495883534   -0.22188847443533   -0.75293241505165
H           0.58502335419741   -0.95356513487489   -2.54233589726022
H           0.72234109400697    0.95844533414108   -1.56978317731484
N          -1.84379677871964   -0.64543729446400   -1.11828954737783
H          -1.24732083718867   -1.11451657100815   -1.85533710088122
H          -1.55005443305070    0.35685770130158   -1.05443442409595
H          -2.82979772047203   -0.72155541021972   -1.34348057765774
H          -1.63940269650726   -1.12790098552828   -0.17728180435486
