    26
        -50.46282791  Gyration_radius:  2.50884677386 Dipole_moment: 5.078
 S          -0.61689044807070    1.42276043996195    1.44515357164225
O          -0.99737285543591    0.25910136802736    2.24576159471140
O           0.72546402771059    1.87070242612699    1.73262656185309
O          -0.87100629359220    1.18508955904995    0.03437597274877
O          -1.58077981289828    2.60300523581149    1.87717158165384
H          -1.11791220097206    2.93202272859233    2.64004309122249
O          -2.12518130133749   -2.38042007029124   -0.70868917358235
H          -2.95537861667239   -1.93025316296967   -0.54301374218312
O           1.75885264912885   -1.30322658556408   -0.56691136768384
H           2.58123164044687   -1.77369573718968   -0.70701002581143
O           0.60954712960201    2.28137415043193   -1.92825460060029
H          -0.00472610027955    2.08270803566986   -1.19630145232490
H           0.32791657792998    1.72383865777998   -2.65820497637001
O           2.37708366978726    1.14791142637877   -0.20748624126631
H           2.02097475171597   -0.33150246618959   -0.41533278713605
H           1.96328762838711    1.64880593503318   -0.93856895431974
H           1.88990005677549    1.44783932717540    0.58866032151032
O          -0.58879256045225   -0.63503185705004   -1.93080041604386
H          -0.77949457898492    0.06608399316767   -1.27897394379546
H           0.30599912200045   -0.93572655467747   -1.71209105251195
H          -1.62638289092526   -1.80381634838133   -1.34620550745012
N          -0.24943761415010   -1.93462233128443    1.12544962171064
H          -0.55209129858165   -1.02780396119379    1.62166605638873
H          -0.05363708580193   -2.65857046457711    1.80830278988513
H          -1.03522552203537   -2.22328845457752    0.47869696790663
H           0.59405190673237   -1.73328526927981    0.53993612982585
