    26
        -50.46282790  Gyration_radius:  2.50888832622 Dipole_moment: 5.076
 S          -1.42881934277881   -1.35172485430964    0.78994367779282
O          -2.18249716586299   -1.43869126839219   -0.43874986647683
O          -0.32064437158424   -2.30572958648025    0.83045890732960
O          -0.96823457516765   -0.01053519707464    1.10668899034676
O          -2.42354783893501   -1.76525630143514    1.95103933429844
H          -2.93596627296824   -2.43298137745675    1.50839139016624
O           0.96178639774455    0.62462104302887   -1.94823498564868
H           1.26196251556275    0.80688626767327   -2.83926096083560
O           2.84650493679763    0.21724223742765    1.59369470801518
H           2.56654357975336    0.00698284534324    2.48628050131110
O          -2.10064667744710    2.20729352822830    0.08520997633722
H          -1.86856345445852    1.39438774433375    0.57298933007244
H          -1.41038138179106    2.84052095134601    0.29846917045342
O           0.98149689539988    1.77712725255098    0.59926402904392
H           1.05610062552983    1.63089798164986   -0.35571221516867
H           0.26090148942257    1.18337551190177    0.88380966265481
H           2.26129712739726    0.96257292493710    1.29418606014442
O          -1.58984761813922    0.59008786987633   -2.03468726599254
H          -1.89705646606039    1.31732074617812   -1.45734192089399
H          -0.05453370899250    0.60416070379491   -1.99988997946359
H          -1.87659391870003   -0.22085690952499   -1.56424924664808
N           1.78722984047031   -1.33889721365463   -0.28720165570773
H           2.36236114847911   -2.06602280643590   -0.69854111606719
H           2.31412991995498   -0.81775723710993    0.46767721974893
H           1.48655314188696   -0.64451870370090   -1.00991881086380
H           0.91046519448314   -1.77050615265996    0.16568505600892
