    26
        -50.46282776  Gyration_radius:  2.50875922674 Dipole_moment: 5.076
 S          -0.12663935351441    1.19562165167061    1.74522182727807
O          -1.40613753146237    0.66060163857055    2.14758676531884
O           0.99125906347523    0.38747909365519    2.23201081883002
O          -0.00887885689279    1.43389632812684    0.31671864323806
O           0.00193781398880    2.61151232555842    2.44331035175979
H          -0.43553082118961    2.43639592076568    3.26933862856132
O          -0.70556120904883   -1.97117768007303   -0.85248534948671
H          -1.09714965944831   -2.81100655774717   -1.09455165128490
O           2.97620250112191   -0.38658051851938   -1.29666003876880
H           3.39190202709381    0.43694493863703   -1.03535289636507
O          -2.14108386879526    1.73864715694665   -1.29737204062172
H          -1.70516898999199    1.62298921648359   -2.14561003952663
H          -1.42125986556980    1.82366784265411   -0.64373096996447
O          -2.59090353316074   -0.54112095215419    0.10659870542252
H          -2.25715473086307   -0.16260973694296    0.94715706153819
H          -2.67798255814328    0.23508510218701   -0.48200321153936
H          -1.46513805516072   -1.41622488822694   -0.46373283509068
O           0.53403309398908    0.23858149437700   -2.03525959706974
H           0.04080443844909   -0.58243285507079   -1.88835869545254
H           0.37281324809041    0.76972065883595   -1.23238975321695
H           2.13910737903699   -0.13067391166242   -1.76727706142290
N           1.52337304891886   -1.54046136228115    0.61107073373227
H           0.64477360694939   -1.79321297579176    0.10199977832066
H           1.30389614794352   -0.75369323777792    1.31307088774959
H           1.90688305570475   -2.34466490797764    1.09571529728441
H           2.21160362847455   -1.15728377427085   -0.09501536922407
