    26
        -50.46282776  Gyration_radius:  2.50873029842 Dipole_moment: 5.074
 S          -0.48040848334283    1.23714211746279    1.65226892123996
O          -1.65587009563410    1.79594717465001    1.02666660298017
O          -0.76587162851956   -0.01527122470567    2.35203266361755
O           0.64962656697527    1.08057322084969    0.75236908597238
O          -0.02759127083213    2.27857214322494    2.75634129291607
H          -0.87439147784044    2.59389042150521    3.05281338042434
O           1.98970836649518   -2.52580847864891    0.59183035252436
H           2.50600228113319   -2.17859254283389    1.32132107443887
O          -0.95199433347351   -1.06902270218815   -1.74922833588037
H          -1.47905865334521   -1.44210482706708   -2.45652675845595
O           0.90049718690830    2.47273106282750   -1.53735398517887
H           1.58661112718592    1.94803690512968   -1.95788609166738
H           0.85744195262791    2.15501748969826   -0.61548283659169
O          -1.59182373165430    1.39767083038779   -1.59072837475429
H          -1.22403700113473   -0.08984243777917   -1.69152486155373
H          -1.75936607200476    1.58398264551681   -0.64287843949684
H          -0.78193995566621    1.90827588851287   -1.79054615703973
O           1.71927066298058   -0.54394926899822   -1.11098920375710
H           1.43927910430853    0.08191594259997   -0.41629444517810
H           2.06386813741797   -1.85424866314882   -0.13701635266343
H           0.90272849006712   -0.76696710452382   -1.58261984687362
N          -0.61941377729019   -2.02822239851832    0.75368317744592
H           0.38953531052951   -2.34608238324938    0.76332402085785
H          -1.24142242817874   -2.77831225869791    1.03507004579966
H          -0.70671179900568   -1.19827987245714    1.43443963733044
H          -0.84466848871738   -1.69705169953948   -0.21308455645787
