    26
        -50.46995613  Gyration_radius:  2.53267618296 Dipole_moment: 3.469
 S          -0.66599837598578   -0.80995030309511   -0.15467489857128
O          -0.52381033528016   -1.38281210449940    1.18245947056333
O          -1.63523509390290    0.26427161308049   -0.19241928442116
O           0.64628767800219   -0.34367773585058   -0.64602657885832
O          -1.16070041293143   -1.91202411352716   -1.11919830046950
O          -1.02613577648279    0.88802907129852    2.42206941123741
H          -0.85140472224106   -0.04858419675458    2.18194256907047
H          -1.82197294805161    1.09753782800103    1.92113952984123
O           1.91048976485248   -2.32332012233460    0.73063022882467
H           1.08755779087889   -2.06974877971489    1.19130007845250
H           1.99895676130361   -1.63807276319678    0.05487303799125
O          -0.71288579001954    1.50113342765087   -2.33027521341333
H           0.04700961061402    0.92519528316015   -2.45561387626930
H          -1.22867012544394    1.06252257739004   -1.62024617351698
O          -0.06947506412934    3.60098216340685   -0.88504856942820
H          -0.28866292916502    2.90384729113842   -1.55969351208404
H          -0.89754604775428    4.04464254926909   -0.69414711208461
O           0.40243577427099   -3.94735080752646   -0.71537848714770
H          -0.03833227671484   -4.54108614480466   -0.10371072007651
H          -0.57289062600030   -2.71798981421782   -1.04210878852251
H           1.11497119686316   -3.49405713179189   -0.19952592596786
N           0.87967703740567    1.80541852778913    0.82182396228537
H           0.16317546320853    1.57031447782815    1.56857344522075
H           0.54201327057723    2.61729468788050    0.23147401243530
H           1.79134301173844    1.99566634814205    1.22470116359316
H           0.90980319437604    0.95181817128175    0.18708054130984
