    26
        -50.46282792  Gyration_radius:  2.5088615702 Dipole_moment: 5.078
 S          -1.86729453821329   -0.91939739812290   -0.40140832747518
O          -1.52460792667838   -1.26558111027571   -1.76082095180129
O          -1.43252711950145   -1.93551790077467    0.55686553229628
O          -1.41493009406916    0.40061845376246    0.00393333948323
O          -3.44952775587452   -0.88560046475175   -0.33737514343278
H          -3.66068402097565   -1.59276588635418   -0.93713315027265
O           0.81102632843729    0.35201163858520    3.14717399571985
H          -0.05741533072333    0.42959599139078    3.54604107535503
O           2.17155720492282   -0.04885879490848   -0.62783978780916
H           3.04404446767266   -0.15529376171951   -1.00823308409619
O          -0.82651884004962    2.35272904934569   -1.75351728351420
H          -1.24211560437737    1.68830858642093   -1.17178314284870
H          -0.34685469356326    2.94332661313290   -1.16694911866310
O           0.71726623252838    1.75997914751484    0.93155624912520
H           1.39564344636035    1.34618399641226    0.37705115379824
H          -0.12012596577715    1.34842801204412    0.64490594089133
H           0.84385489262936    1.04151030303554    2.43216414304412
O           0.54673947705530    0.16367689040226   -2.58597921388330
H           1.53462780216239    0.02456000717581   -1.41834998300101
H          -0.19649840115635   -0.44897292222690   -2.40315253408312
H           0.14192678731043    1.05124848181737   -2.51598668683942
N           1.00356113618248   -1.54660553216709    1.29262762063222
H           0.96451947225477   -0.89403641096399    2.12431131571737
H           1.46799901181994   -2.41595192073685    1.53183435375130
H          -0.00944219133141   -1.73984922946625    0.98189363337754
H           1.50577619295006   -1.05374582857800    0.51817003453089
