    26
        -50.44778658  Gyration_radius:  2.50306111556 Dipole_moment: 3.916
 S           0.06354641733649    0.95156254508619    1.74780210194802
O           1.11939213423813    1.19935268636247    0.75005874671785
O          -0.75221112142536    2.11688556546358    1.97213667566132
O          -0.66140450161744   -0.25994538723122    1.43754229021024
O           0.82582008885179    0.68357854212271    3.11539180395136
H           0.76212110550665    1.52495540412832    3.55570761760928
O           1.92463601097524   -2.75090944616127    0.24501901621018
H           2.23155133128140   -3.50989803300578   -0.25363823567615
O          -0.46783872499089   -0.87058871182356   -2.14377440230738
H          -0.44155152096091   -0.63341390633563   -3.07176958079472
O          -0.35776901675192    3.26844359585744   -0.42432377086213
H           0.55648541020401    2.97586607550526   -0.47879637282293
H          -0.60904477207879    3.07615720026129    0.49704672927133
O          -0.67070919481343   -2.60437661335923    0.14556760843351
H          -0.77536846062855   -1.84464482234043    0.74921683350513
H          -0.83886368962292   -2.24815012368740   -0.73605057096863
H           0.93294161433805   -2.83866797795697    0.32898567606719
O           1.72641594190500   -0.50143804039943   -0.92207211897703
H           1.49388342475545    0.22969590489693   -0.17660488475272
H           1.91688918362281   -1.38125404827352   -0.42599415742467
H           0.84762778999067   -0.65132990731007   -1.45148868642850
N          -1.83313906175532    0.87698156719515   -0.88319537353940
H          -1.07597475470894   -0.15627664785735   -1.67133780487092
H          -1.67285549971843    0.56773190428760    0.07376668761875
H          -1.41357042613591    1.80774253315557   -0.95729373222535
H          -2.83100971794000    0.97194013118255   -1.02190208543571
