    26
        -50.44778660  Gyration_radius:  2.50302619367 Dipole_moment: 3.912
 S           0.03058891606746    1.12503615551273    1.64198500118786
O           1.03065696156077    2.14824172255060    1.80507705266787
O          -0.91962728622888    1.44718102111243    0.56261915611215
O           0.54058800233717   -0.21924260609155    1.49217045581226
O          -0.82625265802821    1.13618279671153    2.97949940796716
H          -0.63060193963161    1.99376604476131    3.34321724163618
O          -2.39253083556633   -2.33583205593705    0.38759003707179
H          -2.80804459466852   -3.07777983201050   -0.05489222063445
O           0.39778509343846   -1.15707050483167   -2.01869947964280
H           0.45455170852118   -1.01755006985929   -2.96497554417930
O           0.95307734194694    3.09566699643147   -0.70925628209342
H           1.12547296982260    2.95936947670654    0.23980625435210
H           0.00450961321462    2.96214033543799   -0.79183027573028
O          -1.74656457530278   -0.28856547772583   -0.97362441736443
H          -1.42006326806904    0.46541353953640   -0.28829698828739
H          -0.88651557376105   -0.64242697612629   -1.43170308908849
H          -2.11191279525315   -1.06555069905664   -0.40855461997058
O           0.18917724836846   -2.65210033158075    0.43229828303419
H          -1.43692797098088   -2.58477014942504    0.53947871525489
H           0.45579166309063   -2.42396777599836   -0.46733167813138
H           0.40119717776526   -1.86313207532658    0.96624057860644
N           1.99673682552668    0.45032885916768   -0.84938088250685
H           1.10232418117470   -0.51323023386769   -1.58033094740526
H           1.74263050491012    0.27470921228837    0.12102889245590
H           3.00062471320812    0.35638948630762   -0.93538333170524
H           1.75332855663894    1.42679314134533   -1.03675130944963
