    26
        -50.46347330  Gyration_radius:  2.63655377689 Dipole_moment: 7.099
 S           0.38926455837304   -0.57551755744365   -0.29529689920597
O           0.74946043399969    0.67898145299590    0.54442146133529
O           1.39638093234187   -1.58586241875198   -0.08742476417455
O          -0.94402017720960   -1.02282863716839    0.14494685171963
O           0.32219604751655   -0.08792356300881   -1.67699705079788
O          -0.02931036161227   -2.39607731856736    2.24979544271938
H          -0.51620854849563   -1.96308636625692    1.52443446107836
H           0.68424142636853   -2.87273574536146    1.81528609307186
O           3.43761596994969   -1.27256046380746    1.58852476451100
H           2.75415382168944   -1.48148242426235    0.91733280811273
H           4.12762545748258   -0.79544786192108    1.12579538000233
O          -0.02374788574165    2.54319924204147   -1.35102792111119
H           0.29366391407437    2.65952184300655   -0.45089503216786
H           0.21948759613338    1.61918224225365   -1.56718813408839
O          -2.64508314894706    2.51620453187030   -1.60154740977287
H          -1.67218162810396    2.64575482420760   -1.44811752088706
H          -2.88290977799926    3.11258374021654   -2.31305871137688
O           1.32241173832748   -0.17269093221527    2.84648498303207
H           0.95697447682642    0.38895307143537    1.51330720214781
H           0.75967094098115   -0.97996647387564    2.87893461777892
H           2.22162525766594   -0.50586439151707    2.65202191418406
N          -2.23491590965267   -0.09303280964451   -1.83041057468638
H          -1.23731088449988   -0.06976562293891   -2.17174456223163
H          -2.02373654127360   -0.50833094534247   -0.87086761690249
H          -2.58183334840048    0.89954432541679   -1.74764070429991
H          -2.84351434979573   -0.68075174135931   -2.38906909799315
