    26
        -50.46185354  Gyration_radius:  2.44952278232 Dipole_moment: 8.672
 S           0.86922915941573   -0.77949552670268   -1.88143680285066
O           0.47587841292353    0.64675108134049   -1.78019543977985
O           0.74474149904710   -1.38927424983694   -0.55668234124849
O           0.16370168135067   -1.47346733935371   -2.90960032856867
O           2.40095252987923   -0.76929613225941   -2.24326936990985
H           2.83347272209184   -0.29563999795442   -1.52477172282046
O          -2.52564442144295    0.30774037173329    0.45784401512984
H          -3.45014408137308    0.53928826531207    0.55753517580798
O           0.87522085869774    0.27120797475393    2.70309761173485
H           0.63494885627379    0.42868639326854    3.61666155911908
O           2.56017284292681    0.24338452043381    0.36408758061591
H           1.89157611005601   -0.44370066040842    0.16576134676508
H           2.70032420967175    0.19582015710470    1.31370227097367
O          -2.05398247172462   -0.06758954732341   -2.08395542214190
H          -1.85984702251603   -0.92225979856074   -2.48657464554265
H          -2.40305422949783    0.07784532371010   -0.50497116250039
H          -1.18873177541230    0.38422498236939   -2.13016495437764
O          -0.72245331656646   -1.52011495918129    1.65874460368687
H          -1.50508285028848   -1.03878100222365    1.35582735561077
H          -0.20303741012046   -1.68381073956724    0.84800742597602
H           0.33291915904272   -0.51054811848203    2.40285065043522
N          -0.11344841685644    1.58128579600093    0.54797879378996
H          -1.09805400675651    1.25345706885142    0.62154307764651
H           0.43688280695996    1.17410308099573    1.33997679319803
H           0.25627108688914    1.19646748550661   -0.39502671645984
H          -0.05281193266704    2.59371557046492    0.54303065570460
