    26
        -50.46995618  Gyration_radius:  2.53282813953 Dipole_moment: 3.469
 S           0.23031999455037    0.00421103572268   -1.03475230389447
O          -0.76582162690429   -0.59408778620844   -0.12342069356092
O          -0.29382951228456   -0.16981462014583   -2.47863207390541
O           0.35702125285098    1.42490372537318   -0.78938900505235
O           1.50671128512683   -0.69693813017215   -0.90909066219782
O           2.44071132217190    0.92564346383302    0.94546813355499
H           2.22756384358996    1.74085760115145    0.47854578186055
H           2.31622573031452    0.23499150940676    0.25777908491963
O          -1.39729359880444    2.51512152581240    2.34057396182954
H          -1.00196419607580    3.38595932424399    2.27423826881062
H          -1.82292825415950    2.34626977540009    1.45769709031484
O          -2.14482562244159    1.89336812848250   -0.10202880369327
H          -2.43244518820880    0.97697997893510   -0.15038640338951
H          -1.23495801498553    1.87623719165197   -0.46876968449354
O           0.38916485789633   -3.04434170052992   -0.40563895469314
H           1.05948240540492   -2.34246412624586   -0.51522431759434
H          -0.38080652130578   -2.55829091200635   -0.08186722366139
O          -0.13263083396437   -2.71408424888944   -2.97878002601999
H          -0.29527796301621   -1.13995864244189   -2.72330906404467
H           0.68615827279517   -2.86986677862444   -3.45447284661258
H           0.01339258106454   -3.04322585257452   -2.05697173888049
N           0.13816027844263    0.36141319256775    2.13453968113574
H           1.11878132169729    0.61894536232982    1.82088358806431
H          -0.42211252312639    1.23566334021932    2.34310175153598
H          -0.31198643217162   -0.10096704325802    1.28841118094860
H           0.15318715155467   -0.26652530402099    2.93149525869288
