    26
        -50.46185356  Gyration_radius:  2.4494919484 Dipole_moment: 8.672
 S          -1.66026772321873    0.73995942908460    1.26458743591103
O          -0.44486088642289    0.16964480443798    1.89433565349621
O          -1.42418997853514    0.85693065895018   -0.17518419968607
O          -2.84515081893246    0.02019429815761    1.60294894639919
O          -1.78241676495020    2.20261940951610    1.83301894997262
H          -0.96660605315740    2.64759415876263    1.57980238684740
O           0.39058494980790   -2.47198226544510   -0.64710212421078
H           0.59308863020922   -3.40131603394670   -0.76363660532466
O           1.78660936517594    1.14201120277363   -1.91055518177853
H           2.41895033231200    0.99172381647078   -2.61388786616305
O           0.52773772332477    2.52725255676684    0.28186160544777
H           1.02937941695861    2.78347982554102   -0.49686053138880
H          -0.18273539535729    1.94036573832019   -0.04870498731501
O          -0.35587003479081   -0.30612444913704   -2.31614450293441
H          -0.16636579435362   -1.17762668547663   -1.94125545036529
H          -0.92233144445892    0.13147983259541   -1.65169302057245
H           0.94644920460239    0.68073877489061   -2.18766349687555
O          -1.32589737370688   -2.25626332722049    1.31017996686087
H          -0.93751823176650   -1.47287625200628    1.74653833991951
H          -2.24850838705192   -1.99523182145951    1.20552604092790
H          -0.33481831487307   -2.43323714623177    0.03642159224575
N           1.60795326439925   -0.26412285374585    0.39791605205958
H           1.74386224879117    0.42640369002441   -0.37708135939225
H           1.33162984510150   -1.17873436913440   -0.01373325573360
H           2.44369363778991   -0.34417843951840    0.96699811096923
H           0.77759858308744    0.04129544703829    1.02336751067414
