    26
        -50.46185358  Gyration_radius:  2.44952987166 Dipole_moment: 8.673
 S          -1.69884609256847    1.36774282938426    0.38270590295237
O          -0.32832475971582    1.37214696466393    0.89648580301051
O          -1.79581155884019    0.34443572837033   -0.68618633722066
O          -2.69691063875885    1.20787723794142    1.39009019109571
O          -1.92762728689543    2.74962635938480   -0.33512382714777
H          -1.23385282663594    2.81394572971763   -1.00010055640290
O           0.20290233046958   -2.41165958782829    0.90798011090361
H           0.19632874322086   -3.34126499624016    1.14043795728355
O           2.71878370732135    0.28873491892334   -0.81988005821056
H           3.58457023940405   -0.11291020579026   -0.89872468623766
O           0.55045199357704    2.07868259312084   -1.45675697946469
H           1.50775239708729    2.09946852777402   -1.53969908969633
H           0.37599187762359    1.84041348925705   -0.52336377788580
O          -2.22971065651892   -1.49535188595899    1.16578392468229
H          -2.51358516783169   -0.87410840349949    1.84677293002133
H          -2.25374408993137   -0.94373633618472    0.35952414578475
H          -0.71320565893356   -2.07237869617358    1.10936446037205
O           1.75501792526935   -0.13606965958437    1.57643681139951
H           1.01550218290053    0.49953398607612    1.52120999691289
H           1.33335133321765   -1.00627722126388    1.54655620830788
H           2.46529564925420    0.21853669263499    0.14253535488031
N           0.35103748563372   -0.90894454718406   -1.36542378519906
H           0.23493621596225   -1.32847882378903   -2.28151762788089
H           0.37768106966933   -1.62629604938371   -0.61239220825513
H           1.22857524509376   -0.34000047766524   -1.31938607820654
H          -0.50655966910357   -0.28366814669971   -1.14732879580881
