    26
        -50.46185359  Gyration_radius:  2.44951859757 Dipole_moment: 8.674
 S          -0.53111636895342    1.96821713933540    0.86448861365154
O           0.59025094667953    1.56429086937412    0.01501374015924
O          -1.48769474737616    0.83813829191547    0.94746309032697
O          -0.14198468153446    2.45552541012392    2.14805497642735
O          -1.29733483548181    3.11371034392189    0.10431610670831
H          -1.53593560465080    2.74185982145212   -0.75153286923600
O           0.61838855391042   -0.99543946639792   -2.60274474595470
H           0.98441929633601   -1.70749464576327   -3.12820330924351
O           0.93986846367002   -2.00606315862240    1.33204746311851
H           1.15833710188020   -2.77471719762805    1.86090282678618
O          -1.04014475543268    1.28542791004750   -2.00301809073414
H          -0.64170767214651    0.91225977813940   -2.79399624970933
H          -0.30867679616645    1.36596785505535   -1.35730801622342
O           2.23805608968150   -0.42269267338246   -0.62797682746494
H           1.33253855972573   -0.72782643473175   -1.95941621381564
H           1.81282313455450    0.41648172132402   -0.36538913553638
H           2.02261867601906   -1.04046661708391    0.08468298411730
O          -0.05147253735790   -0.18479588852885    2.92062929653413
H           0.38883062086621    0.64181525333517    3.15108567941718
H          -0.77635179375384    0.12138677972273    2.34121221795176
H           0.65730464870824   -1.30035763218556    1.97787510751388
N          -0.99669783057768   -1.27348496838387   -0.44594108603881
H          -0.31345437516164   -1.74089874408470    0.18420486652832
H          -1.24176602970553   -0.33192151105410    0.03079213111747
H          -0.53661384598519   -1.09690940230361   -1.36953335977117
H          -1.84248423774073   -1.82201282360249   -0.55770920663356
