    26
        -50.46185355  Gyration_radius:  2.44954598035 Dipole_moment: 8.671
 S           1.45382581074802   -0.79917643825624   -1.46638740588002
O           1.32346276339329   -1.02113677208471   -0.02556155977330
O           0.26653807319324   -0.04366759489003   -1.93406452954022
O           2.68343029857110   -0.18563557508300   -1.85126222199296
O           1.35716364203770   -2.20797907621386   -2.16141591802103
H           0.51809440273425   -2.58211773089765   -1.87218028390084
O          -1.74666552246034   -1.10863270493179    1.96651990005167
H          -2.29777656751035   -0.95468456489706    2.73443600753482
O          -0.04463433201501    2.43072951091746    0.87876116954669
H          -0.12708412439542    3.36216163389743    1.08823629914252
O          -0.84152088232373   -2.41822219236853   -0.43781164876795
H          -0.04263390297528   -1.94569982767182   -0.12642449282417
H          -1.30478219248360   -2.68829017355563    0.35977669038571
O           0.57658108008388    0.05287304730861    2.29102462298510
H           1.03173464431893   -0.38198551119083    1.54426762042107
H           0.46073759330680    0.97042680597546    2.00709531327707
H          -0.83851261730389   -0.76946040682776    2.20232595414467
O           1.47038489778619    2.20767345492470   -1.23752795226477
H           0.61334280488352    2.37519298307286    0.13116969819273
H           2.36157769541987    1.83883441982128   -1.23881035225853
H           0.95884104310597    1.51457527001642   -1.69888145605533
N          -1.59301292563217    0.47388494374406   -0.22660521622593
H          -1.74539072593571   -0.26534178997672    0.49882299513762
H          -1.17891673460511    1.31136127495675    0.23109859972527
H          -0.85765609004116    0.13770970738454   -0.94789366763641
H          -2.45712816189329    0.69660732684361   -0.70870817540475
