    26
        -50.46185358  Gyration_radius:  2.44951383327 Dipole_moment: 8.674
 S           1.15718210825491   -1.85377738370075    0.35695971456144
O           1.32498044769474   -0.50046646585221    0.88859158887505
O          -0.12390916877959   -1.90974805459991   -0.38781752349933
O           2.26403664216615   -2.31608905089288   -0.41608386170220
O           0.97014360975797   -2.81446212355873    1.58953968355615
H           0.21870518518690   -2.46370793690181    2.07940920709078
O          -1.28130475152320    1.96156612049219    1.63027689000245
H          -1.67251793325954    2.83392503222447    1.68556732756244
O           0.05195460815752    1.39076255475279   -2.17830772653985
H          -0.01741885632958    1.81445557036974   -3.03500104347075
O          -0.83147922752066   -0.79955912334450    2.32715939539900
H          -1.11741182227508   -0.00925963679827    2.79327476982273
H          -0.00239134658770   -0.54668005152381    1.87208801607298
O           1.11976476162283   -0.96781107146988   -2.52525187617513
H           2.00439593830941   -1.21857053906532   -2.23404043305036
H           0.54956412097814   -1.46751108766117   -1.90874594452521
H           0.54865595385558    0.53968659458685   -2.33295105037038
O           1.02026473179002    2.09498423507829    0.39086115453838
H           0.81995954932712    2.04969218679501   -0.55453518838086
H          -0.35602162407697    2.09238112627611    1.28069258792519
H           1.33125929553721    1.19827848476206    0.62143275122419
N          -1.62103173411913    0.18792011899280   -0.38870747780300
H          -1.03397519187005   -0.71491035656829   -0.26981674333874
H          -1.15148173971319    0.73457961017131   -1.13907099733858
H          -2.57084499174160   -0.06149026248629   -0.64241547897205
H          -1.60107857484521    0.74581150992359    0.49689224853558
