    26
        -50.45376617  Gyration_radius:  2.45977051811 Dipole_moment: 4.218
 S          -0.37533779563362    1.79466388347186    0.75523098536554
O           1.12217886390483    1.80987982007899    0.38078982573797
O          -0.96407052888260    0.59371564340456    0.22419069792183
O          -0.53731044724405    1.98581938298298    2.15813549690505
O          -0.93838307921626    3.01832015504026   -0.00014309774972
H          -0.74202595627680    2.80719629386404   -0.95128393052395
O           0.74392687406610   -2.20537717885083    0.96061288904120
H           1.35855143729217   -2.79867685575234    1.39476184689409
O          -0.05199524967960   -0.52861756078110   -2.69440581993973
H          -0.20598527691618   -0.89453205995122   -3.56626686493357
O          -0.05485327939585    2.17001576204392   -2.28924575484923
H           0.88821251747245    2.28792342342615   -2.14756895351240
H          -0.19135925820447    1.21039174241152   -2.42850296232128
O          -1.37188396188458   -1.81299696160321   -0.83613173401308
H          -1.51501593840862   -0.96674999575623   -0.38047116621177
H          -0.62972161200436   -1.04140052475808   -2.06053275342885
H          -0.69202430223136   -2.24783051928444   -0.30099487518868
O           1.79887902458086   -0.36479667744517   -0.68891686797618
H           1.45491865956428   -1.05670042884044   -0.08009464593310
H           1.25288687267303   -0.43617423056294   -1.49270749962334
H           1.42510282436697    0.91446434461737   -0.04417237230452
N          -0.37954110673844   -0.80814473471679    2.91710923660441
H          -0.41549638336553    0.16704294892836    2.62102029450402
H          -1.34045932448830   -1.10896311607015    3.03057289182486
H           0.30797934798429   -1.66278952122411    1.68542336086501
H           0.05282708867043   -0.82568300467310    3.83359179284525
