    26
        -50.46185357  Gyration_radius:  2.44952182057 Dipole_moment: 8.671
 S           1.06354706707045    1.71793738704997    0.90586136862533
O           0.39979055842524    1.57510472910654   -0.39073990483767
O           0.75870267032114    0.51888171574298    1.72342438180234
O           2.46306383067919    1.98230940291858    0.81670355935460
O           0.37215734718223    2.92114496668232    1.64871536469385
H          -0.56465382934946    2.70006720156407    1.68289938565636
O           1.13096954945177   -2.13897804166328   -0.90982175181101
H           1.55408081920416   -2.97339751679972   -1.11715030501852
O          -2.55672177273396   -0.42878255038703   -1.19410093832125
H          -3.11164610666081   -0.99605080270322   -1.73018867269587
O          -1.92140034887088    1.55323166642539    0.80121316178017
H          -2.66859929671697    1.37204940725597    0.22461615947426
H          -1.13827404880793    1.56875233945426    0.21388875949583
O          -0.22944712738625   -0.11164773898336   -2.34951246406911
H          -1.74742779714881   -0.23095976604516   -1.74306317489595
H           0.08201128130741    0.62476022739517   -1.78860759932398
H           0.30935208813395   -0.86908901082914   -2.08126003182294
O           2.77523838474292   -0.74040514381114    0.56131270527873
H           2.12320407294161   -0.38979305343256    1.19915442736896
H           1.81769031588160   -1.59450305270922   -0.43354725595686
H           3.22711867712513    0.06048940211769    0.27034020495158
N          -0.84709094225604   -1.24239754865614    0.74320418116856
H          -0.18224732629625   -1.76376070690871    0.13621803458768
H          -1.21812982805758   -1.82679118196916    1.48451138554184
H          -0.27552998882365   -0.43181841034723    1.17938838520890
H          -1.61575823936389   -0.85635393047530    0.14654061376018
