    26
        -50.46185357  Gyration_radius:  2.44950027375 Dipole_moment: 8.672
 S          -1.22607396709111    0.32684338072616    1.81461841752228
O          -0.24305562809475    1.35211293492762    1.38853999539806
O          -1.30730973188627   -0.69785007909763    0.77264367682187
O          -0.95437406302646   -0.18873041167248    3.11723560803182
O          -2.61637101305409    1.06402506678850    1.84693114935134
H          -2.75684600726719    1.39075585623435    0.95184607158567
O           2.42573454325742   -0.89282260172024   -0.01618161390658
H           3.36186659406358   -1.09611412231118    0.00754627968574
O          -0.51533842319641   -0.35388039411337   -2.78495658876200
H          -0.18013421619846   -0.62921149295813   -3.63874083084176
O          -2.16999211920776    1.09208343298101   -0.91879829168034
H          -2.26336837944469    0.77997065451233   -1.82297648255725
H          -1.88195237489000    0.31123005740659   -0.40321770911885
O           1.69708776239970   -0.14972760798406    2.37978019628859
H           2.16142525416624   -0.70826676176693    0.92774810111102
H           1.11635020447814    0.59264153060609    2.12176423968575
H           1.12574176519683   -0.66237694679823    2.96378574731456
O           0.07435335003781   -2.15126995369151   -0.97564093293082
H          -0.38816282914657   -1.13059829282360   -2.17179860966338
H           0.97047067984613   -1.94574339374990   -0.67444369876445
H          -0.50856562979700   -1.80663553915909   -0.27185898844309
N           0.82532745966714    1.11363139592541   -0.94449192627182
H           1.21456351165655    2.00165059889124   -1.24222049306145
H           1.56890976473105    0.42022381859500   -0.72406935406591
H           0.27231540529330    1.25653648938818   -0.02377291220397
H           0.19739807752010    0.71152239087506   -1.67927104051871
