    26
        -50.46162543  Gyration_radius:  2.55215088739 Dipole_moment: 4.694
 S          -1.57599089028295   -1.56521780171094    0.40175659503913
O          -2.32430202826696   -0.33423286995129    0.49849819227469
O          -1.18986374511088   -1.93078470740269   -0.95000446805786
O          -0.42629024942073   -1.55530678413436    1.31050390835706
O          -2.53772615513798   -2.72073201427657    0.91167818244673
H          -2.10168618938887   -3.53026157419225    0.65990700520415
O           2.62169546972293    1.41400764002427    1.57793144968434
H           3.11725991634835    2.23259286357642    1.61643079508694
O          -0.20090266648400    1.86331147462259   -1.13165597135685
H          -0.40719177472071    2.75936082302406   -1.40185899178919
O           1.47598739228555   -1.81819850152546   -0.66454605047629
H           0.56165362186743   -1.90610280320571   -0.98926085182447
H           1.38522989264073   -1.91668437569387    0.28963108897988
O           2.37324881974537    0.70254395724290   -0.92308174386533
H           2.17423945124284   -0.25920255698482   -0.92512469594935
H           1.55011484213599    1.13256581441342   -1.19431469602081
H           2.67503898209307    1.10037501098758    0.63098546978643
O          -2.10565659862372    0.34925574767524   -2.02529024161663
H          -1.72499079377812   -0.52789655875101   -2.17893586328014
H          -2.48765978174319    0.24808435513987   -1.13100672681020
H          -0.89814554855297    1.28254755362917   -1.56049442366252
N           0.00580021310763    1.01207147072530    1.45107729165930
H          -0.18100108466782    1.36175179093435    0.48362394459822
H           1.01412889132540    1.21837942540547    1.68436001060571
H          -0.64518654403178    1.43103660134454    2.10691885029006
H          -0.14780342228517   -0.04326397094386    1.45227192069004
