    26
        -50.46162527  Gyration_radius:  2.55251414872 Dipole_moment: 4.691
 S          -0.21430356021390    2.11169573344481    0.77325594376556
O          -1.41340871486358    2.01429625567640   -0.04062633982591
O          -0.24772346907941    1.32660019906448    1.98463621015768
O           0.99441866973992    1.82743127924003   -0.00521073006217
O          -0.10907814189213    3.63088256425020    1.22181152200509
H          -0.28083740033092    4.13218397586984    0.42941984914364
O          -0.98443221301845   -1.81643777074616    0.72942983041180
H          -1.22821420992854   -2.58748266844913    1.24376242619176
O           2.39582839609538   -1.99285601590951   -1.28344137277447
H           2.64606163583648   -2.91554518725124   -1.34039206420840
O          -0.33826937366868    0.90165095678205   -2.23269153242705
H           0.53504971752669    1.21839179606511   -1.97727307195502
H          -0.92507295953116    1.28236788202423   -1.55442754302542
O          -2.52601869724793    0.11940600177862    1.50100980104947
H          -1.79592985316491    0.54485299961095    1.99333246479017
H          -2.63530622999757    0.71970491057298    0.74922239439556
H          -1.64779512302706   -1.10481479460272    0.97574752993946
O          -0.11533252237310   -1.76361850497195   -1.96444485385879
H          -0.25424716331666   -0.82395181470895   -2.21408166600168
H           1.48539801914730   -1.92551681348588   -1.68898244979537
H          -0.58314462567128   -1.87524532204173   -1.12496940634336
N           1.46331439191555   -0.61464463882981    0.77859905735540
H           2.00196501502108   -1.15407914215565    0.04864874315502
H           1.92791363104390   -0.59857095266170    1.68043259238397
H           1.33315260727243    0.39134138350206    0.44932075349518
H           0.51601217372172   -1.04804233207321    0.86791189203424
