    26
        -50.46185356  Gyration_radius:  2.44948717084 Dipole_moment: 8.669
 S          -1.39431858962411    1.29510525327370    1.13135227149771
O          -1.37816712933487    0.90319461510942   -0.27873948130359
O          -0.37156483975527    0.49855849595600    1.85147750972808
O          -1.25080898081118    2.69854766176927    1.34642137490190
O          -2.77885555065345    0.83606204643214    1.72259043883344
H          -2.83159890191999   -0.11055388343911    1.55287226463718
O          -0.24555408412063   -2.26503755865945   -1.71903380094908
H           0.16950805113707   -2.83421063184535   -2.36777272903160
O           2.41353210574125    0.63906236580982   -0.66961428997157
H           3.34249497739529    0.84042469969140   -0.79089335631481
O          -2.06826056438998   -1.52319048629656    0.38870085393605
H          -2.07582847241199   -2.15369798833857   -0.33655309388328
H          -1.83377859733356   -0.66370806547494   -0.01719392591831
O           0.16209026678548    0.24370572824989   -2.34532788744169
H          -0.48511592758540    0.62746720821410   -1.72262615821804
H           1.02552047811805    0.47619759449823   -1.97598197093689
H          -0.18034834626102   -1.33709097434171   -2.07961527485229
O           1.45951071306932    2.26939045319840    1.13464603693178
H           0.90852235209697    1.62610128156288    1.62201432392458
H           2.06017471620533    1.33742405398647   -0.05122674825874
H           0.83300882576534    2.98053754583961    0.95561486895537
N           0.91567964727171   -1.30124768910614    0.53055599567326
H           0.36022608641929   -1.78593644145238   -0.21270545882531
H           1.33424106832170   -1.96953294824011    1.16846532034717
H           1.63264254065579   -0.70107477134330    0.07441934468054
H           0.27704813519468   -0.62649757503460    1.08815356185330
