    26
        -50.46418295  Gyration_radius:  2.53412611656 Dipole_moment: 4.753
 S          -0.46675368839238    0.70182091488379    0.23384202125819
O          -0.12291407861095    1.24107923191790   -1.20353408135994
O          -0.09153459417565   -0.72802688023382    0.21179486702427
O           0.41067187927739    1.44205031510032    1.11996042723652
O          -1.87164031093560    0.88024595580533    0.48166644782779
O          -3.29960920068544   -0.66688682315911   -1.13927987744951
H          -2.95869866192050    0.02964281802305   -0.54048614192977
H          -3.14725514471494   -1.48725061243284   -0.63669602843045
O          -2.25835695180914   -2.20339734830502    0.86094082553896
H          -1.42616048611727   -1.75923176475214    0.61291144686763
H          -2.64607537444164   -1.65508262902425    1.54659154064599
O           2.11896741757973    0.38986518873090    2.81744518961445
H           1.64538984515324    0.03794126090378    3.57230718304105
H           1.45606837551953    0.89699847492763    2.29148014265010
O           2.48369568864284    1.77941183660325   -0.72573662357727
H           2.38828072567938    2.31971035334060    0.06556751357066
H           1.57441766503374    1.69977567634605   -1.06788047662164
O          -1.38219140542793   -0.26676323039761   -2.82558683460855
H          -0.59888146055347    0.63644540645355   -1.85974726681657
H          -2.16071677083938   -0.53095710134011   -2.24744933278121
H          -1.75294031639100    0.24666114518031   -3.54648363848145
N           2.45582645326727   -0.63024610976723    0.38617746333006
H           2.57793236688287   -0.43213996296212    1.40427403666961
H           2.66144763263993    0.26574357666342   -0.13478469236079
H           3.01566981244141   -1.41151975307939    0.06360701490754
H           1.39536060290521   -0.79588993941717    0.25909887422578
