    26
        -50.46627185  Gyration_radius:  2.44593351156 Dipole_moment: 6.899
 S           1.23880417002001    1.55701242800836   -0.08371132290354
O           0.73010811640546    0.94918584920817    1.15091793803925
O           2.53591611230117    1.07982025414304   -0.46795831296548
O           0.22059701962100    1.48254903616611   -1.12158309004943
O           1.42110749829616    3.09887126367003    0.24291520951962
H           2.36618484012983    3.17196202491395    0.17181731238618
O          -1.33246172515643   -2.10685275441094    0.36566673871148
H          -1.80650660191367   -2.89305111878759    0.09408694662763
O           2.39451809766914   -1.61840202845650   -0.83684882694637
H           2.65226292474975   -0.68214103497366   -0.79568058783418
O          -2.37394583352032    1.77524714645030   -1.01571456187711
H          -2.69373206290868    1.35023364098701   -1.81433190998924
H          -1.39655178393497    1.84324710519606   -1.12827232688055
O          -0.06325477187547   -1.14759483264751   -1.64811015034544
H          -0.84102178630430   -1.77567217463645   -0.45704292645894
H           0.00727154471150   -0.17897238134189   -1.57960048712160
H           0.86618930538881   -1.46411917188808   -1.50554764895884
O           1.21900807128481   -1.71278625167558    1.63614475947369
H           0.34974632107590   -2.03332893646595    1.36201386238884
H           2.19049721569123   -1.86195140545945    0.08572072803493
H           1.16902214088028   -0.74412326198058    1.60010148439407
N          -1.79936230774438    0.38175653930903    1.16872495199002
H          -1.79714539293478   -0.64286901613556    0.94901848766949
H          -2.27584461840428    0.57982110723754    2.04151514207482
H          -0.76955932742977    0.67312154460297    1.22435172895925
H          -2.21184715607996    0.91903642908381    0.36140684206180
