    26
        -50.46162545  Gyration_radius:  2.55223602039 Dipole_moment: 4.693
 S           1.11273045111394    1.86889382135794    0.60427828449948
O           1.15410428956778    2.00113792214216   -0.84162280789020
O          -0.19169466277925    2.07728733110033    1.18725253439333
O           1.69163667103693    0.59837487236599    1.04963093933884
O           2.05256461640615    3.01269311335077    1.17751638041395
H           2.84033019081079    2.97324696995295    0.64222517342104
O          -0.09772348343634   -3.26595696162262    0.82856051255821
H          -0.69877194230499   -4.01111438724988    0.85405236144706
O          -2.09481159450151   -0.19046887512290   -0.60981330836485
H          -3.05109982792826   -0.25311762363591   -0.61122110706174
O           1.87472887774795   -0.50666641025532   -1.46733907596269
H           2.22225753247328   -0.63691723063841   -0.57815922478817
H           1.60559506435911    0.42969806747909   -1.47048169057537
O          -1.50318722131311    2.29007189688960   -1.07490121688232
H          -1.88406801849969    0.75313749614883   -0.87893513855347
H          -1.24870637702932    2.43640718562939   -0.14214100989741
H          -0.64302768404608    2.30141457691733   -1.51950791625067
O          -0.25782679067830   -2.14203491824356   -1.52390549177728
H          -0.95962824786793   -1.48617556544624   -1.40862903431511
H           0.56557959437579   -1.62032070065349   -1.64391290286509
H          -0.07685927072074   -2.95734952084554   -0.12125934341845
N          -0.49351915835199   -0.74111198106159    1.52808789560127
H          -1.15143015602384   -0.44758379985111    0.77035977686763
H          -0.33299326657155   -1.78027626395639    1.43755104176248
H           0.42872598354815   -0.22726335307669    1.37719719756367
H          -0.86290555937992   -0.47600567163532    2.43511717068589
