    26
        -50.46162527  Gyration_radius:  2.55250157658 Dipole_moment: 4.691
 S           0.43741653556824    1.98538714121701    0.98476281538900
O          -0.97468967764985    2.15252233066739    0.68853137479962
O           0.72027599938456    1.04006150470025    2.03897460254720
O           1.21167742925157    1.67671906181991   -0.22053005544302
O           0.94986485558668    3.39853570624726    1.49522407873258
H           0.58334182102374    4.02816126951727    0.88029625673694
O          -0.93481209875586   -1.77310740086812    0.88352244134521
H          -1.09707206470666   -2.57682013243697    1.37967792288697
O           1.39251712583289   -2.05359505818226   -2.28075292388961
H           1.44801906049460   -2.98052145594289   -2.51509480887527
O          -0.97841726738743    1.25333526354303   -1.83950936743520
H          -0.03280607518406    1.42288848349890   -1.91243273890765
H          -1.20329888365738    1.59766284859572   -0.95623507564748
O          -1.11825285358134   -1.42993688804908   -1.92084842362452
H          -1.25719274642007   -1.60707208491446   -0.97994601848675
H          -1.18114880134711   -0.45406337073029   -2.01160523696257
H           0.42145820136660   -1.81979394792638   -2.29714568095328
O          -1.74326376941311    0.19805563990169    2.35991367937325
H          -0.82392147938405    0.45626622568015    2.57097397442280
H          -2.01859602165394    0.91094132612481    1.76534771073314
H          -1.33414369438875   -1.03145293554974    1.42916405903489
N           1.52358793872436   -0.89231170638221    0.09736866398755
H           1.65961767931459   -1.37898704352798   -0.82914826911787
H           2.28207928742753   -1.06438922174532    0.74891525478426
H           1.45064500438143    0.15935245057670   -0.06375776411946
H           0.61711449517330   -1.21783799583525    0.50433353870040
