    26
        -50.46162531  Gyration_radius:  2.55236843311 Dipole_moment: 4.684
 S           0.74881226516988    0.66744225019073    2.02272322946638
O          -0.47892169876706    1.41407505020767    1.88034784744339
O           0.56476206350455   -0.75172955189677    2.27188964087617
O           1.64531466206806    0.90737276057977    0.88857237792492
O           1.48497900175694    1.24703576899278    3.30411425888223
H           2.17992539496875    0.62177509090191    3.49107488567461
O           0.73023217697384    0.48693706338414   -3.25505038215513
H           0.31462927743818    0.50177709283895   -4.11774070717452
O          -2.06487906367823   -0.38540641512210   -0.62040061840470
H          -2.97541617641417   -0.28476705393399   -0.90186844025507
O           1.72548968370024   -1.71631151405751    0.05333428089857
H           2.20940086318301   -0.89102344317894   -0.06130230819514
H           1.25991227748589   -1.59011959211306    0.89984441654115
O           0.01561613020911   -1.70119967003750   -2.02056997216137
H          -0.79088340668028   -1.43936549491527   -1.55478801665437
H           0.55615248858853   -0.42150415479968   -2.87770662182747
H           0.68102016307287   -1.85844247899580   -1.31548534915892
O          -2.09832772496306   -0.64826082045902    1.95810129077875
H          -1.33060273193328   -1.18558381244344    2.20196504432508
H          -1.75702351635370    0.25917112656172    2.08635063251144
H          -2.10406302937582   -0.57478493056382    0.36440941582066
N          -0.11003798938264    1.48734743542049   -0.95000022600310
H          -0.40342255303494    2.45309878964166   -0.84663360046021
H          -0.91167644425874    0.84392011547614   -0.75875575175105
H           0.26003434890508    1.27109054340992   -1.91445569891609
H           0.64897350783405    1.28745584505967   -0.22796964801245
