    26
        -50.46306198  Gyration_radius:  2.54967288535 Dipole_moment: 2.582
 S           2.20126209838135    0.30439090716578   -0.18666237380909
O           1.63547164914185    0.96463313358839    0.98312389432535
O           2.57673202019113   -1.06984458571637    0.07322640721335
O           1.35091505183786    0.46166655814221   -1.35203377804909
O           3.56069614055602    1.05841846188146   -0.51602087871243
H           4.18878319925939    0.51964275710088   -0.04618176573402
O          -2.29754707332426    1.57288666333299    0.70161699230256
H          -2.99566891326680    2.22874152482842    0.67687802302003
O           0.54225689533762   -2.72720743999196    0.43150638740500
H           1.42104947161919   -2.29484357060201    0.36364582181594
O          -2.76986511690253   -0.70041754715248   -0.65579588047967
H          -2.61564006680591    0.18126571074860   -0.25197155942405
H          -2.87689849020656   -1.30200144917952    0.08514721886168
O          -0.52066246738788   -0.52406932511953    1.61210059362044
H           0.30721797712934   -0.02042464235548    1.50367879107772
H          -1.22221400994249    0.13307553504333    1.54230826878867
H           0.06917489414245   -2.18049777145978    1.08247442165888
O          -0.03181234970424    2.85673624502157    0.26873328794275
H           0.20582222156027    3.56212952785809    0.87372979608438
H           0.63200707748613    2.14501227519195    0.42168850012428
H          -1.45967418496541    2.05333257181268    0.47784486119136
N          -0.39225120595315   -1.45353687515598   -1.64645670279604
H           0.28562415045585   -0.63777464369910   -1.61764645935791
H          -1.35250024348222   -1.12012807403176   -1.38167722773429
H          -0.39091776948314   -1.88694567854913   -2.56257066148125
H          -0.05136099571173   -2.12424026870047   -0.88068598786427
