    26
        -50.46162539  Gyration_radius:  2.55214901291 Dipole_moment: 4.694
 S          -0.79042338000742    1.89183471073552    0.94427543975503
O          -0.89929874566120    2.17613516179313   -0.46711447165117
O          -1.76053400907339    0.93193733462638    1.44181451074777
O           0.57961921012208    1.51306687678432    1.30093239762855
O          -1.08945866330742    3.25292456535237    1.70472172134722
H          -1.20595775269253    3.00221952634922    2.61713362449949
O          -0.71559745407588   -1.01319000446712   -1.80468440540222
H          -0.89322280379601   -1.25934721829767   -2.71371808606533
O           2.95918017865678   -1.53814510365355   -0.48744061208037
H           3.40112861767670   -2.13236276538905   -1.09469486042363
O          -0.07050962795636   -1.00291441396650    2.21697989401432
H           0.65089419401204   -0.36595507057863    2.26381322736852
H          -0.84513491127454   -0.45272026371823    2.00133132981403
O          -2.74248586425591    0.38436654542329   -0.99331650699335
H          -2.22883918482271    1.21491129841623   -1.04107714416741
H          -1.54591263273758   -0.55184727398020   -1.48071331653242
H          -2.81683993516664    0.25176023692586   -0.03684912553461
O           0.63886481995622   -2.55890737807882    0.14290996512180
H           0.04744183565107   -2.19713236604225   -0.53189084839478
H           2.15223793450247   -2.02617309119817   -0.15798799653181
H           0.36194161333451   -2.13312773363655    0.98348349725822
N           1.37627798854822    0.52930607225641   -0.97821468782279
H           1.11016259431089    0.94853387107831   -0.03433149236521
H           2.14742694564249   -0.17790326119242   -0.84085868878775
H           0.53929595686786    0.02731983609906   -1.35313387834047
H           1.63974307554919    1.28540991836023   -1.60136945645528
