    26
        -50.46418250  Gyration_radius:  2.53428988866 Dipole_moment: 4.751
 S           0.76906318258889    0.05828045250614   -0.42015973938709
O           1.39634279540563   -0.79600884578625   -1.39158404299418
O           0.12416527620188    1.29065533539972   -1.15507509607940
O          -0.35495725099600   -0.61927176892874    0.26068737470933
O           1.67029089174494    0.64497319147602    0.55278565494882
O          -0.43468159260810   -1.89455545801761   -2.97232335888571
H          -0.72889564027569   -2.55976094732928   -2.32428191529167
H           0.37541540930343   -1.52504485192135   -2.56344848129853
O           1.62654131996997    0.20325116764175    3.14294628718571
H           1.80113378433064    0.37508677436633    2.18730586701917
H           1.98599737981676   -0.66573189294807    3.32604393181860
O          -0.48448001930156   -3.18504110241764   -0.56876041653664
H          -0.51981418040830   -2.27684210145445   -0.21434934599225
H           0.44767291239624   -3.40959322909974   -0.60583597292208
O           0.19862353349232    2.98892551043564    0.94779071523088
H           1.12791611647616    2.90166197341698    1.18434233923909
H           0.13384446282116    2.54899866656945    0.08033468054158
O          -1.71252139856059    0.32590837899335   -2.63295650778619
H          -1.33571767187157   -0.59011897627918   -2.80431448719542
H          -0.62312862169253    0.92411368878899   -1.72967434769543
H          -1.72819542270439    0.76671022670513   -3.48506443203179
N          -0.78249659637916    0.90532135316233    2.26619960602273
H          -0.00031407326182    0.62468477066838    2.89870047255210
H          -0.72985718561374    0.21674402622359    1.43489338366472
H          -1.68665762045374    0.89721727740676    2.72477021635562
H          -0.53528979030293    1.84943639047057    1.86102761477253
