    26
        -50.47096509  Gyration_radius:  2.40583897353 Dipole_moment: 5.280
 S          -1.14331441577192    0.37513218822543   -0.71554469441696
O          -1.84316689948576    0.35237672579683   -2.09363783579998
O          -1.28823987893827   -0.95004872142160   -0.10628236463510
O           0.27176520288727    0.68066461818358   -0.94301863122708
O          -1.77722278328836    1.39888697440010    0.09586123061143
O           0.52817890575324   -2.55369952369731   -1.12668627269835
H           1.31725303015766   -2.21640624310933   -0.68780239001979
H          -0.21507835560794   -2.10052408764974   -0.67307220645978
O           2.11889110687127   -0.57650148593112    0.28373497818818
H           1.39010253612351   -0.14393658298092   -0.25442475111652
H           2.94042028730173   -0.30197252181795   -0.12736095017120
O          -1.49420841228257   -0.15975045852536    2.35437363912024
H          -2.02896703405446    0.61155277663721    2.13110006064176
H          -1.46972754955934   -0.65395799303185    1.49936070901309
O           0.30566632464445    2.80292696315635    0.75990072152660
H          -0.59401865599983    2.44237680696286    0.55826681912711
H           0.78451858880032    2.61943229042394   -0.05643228745146
O          -0.35385172547203   -1.38545269946426   -3.33467251404827
H          -1.27571380935119   -0.25680360926728   -2.63856935553028
H           0.09326537791119   -1.84992964016330   -2.58314171556349
H          -0.92103132436985   -2.04063414461232   -3.74724478309871
N           0.95537348680314    0.77961747044342    2.30867007048079
H           1.41817595968056    0.94150692154228    3.19629900681143
H           1.51770795001331    0.15845049512019    1.68348624594251
H          -0.01243378189904    0.33726027014280    2.44448654373372
H           0.77565587913221    1.68943320062615    1.77235075703393
