    26
        -50.46306155  Gyration_radius:  2.54949235999 Dipole_moment: 2.589
 S          -1.89072998773076    0.01069792890776    1.18085920107159
O          -2.11871489673843    0.19015535805280   -0.24753459786311
O          -1.84505274832073   -1.38354540539410    1.56943115166470
O          -0.74718741711144    0.77732157235127    1.63963826656859
O          -3.16208916868498    0.61373599980525    1.91917823059004
H          -3.70521657893043   -0.16180762221358    2.01444647628937
O           0.29587044539218   -2.70014068587716    0.73444367190043
H          -0.56772091324118   -2.42170503886607    1.10926677551022
O           1.12095017780068    1.45932248953948   -2.19965099504679
H           1.49602584901185    2.16097309752613   -2.73363404916997
O           2.85504999452513    0.08443493404314   -0.67103799945765
H           2.85243527238085   -0.74921175006852   -1.14783476099159
H           2.25711555588299    0.67446367044249   -1.17945542998087
O          -1.06079991957241    2.43871137052998   -1.08153563098439
H          -1.74898304950109    2.77248955123765   -1.66038462780982
H          -1.44240549467088    1.63663001018999   -0.65539169382515
H           0.33878427649238    1.85394324856473   -1.73555424033341
O          -0.04177049619467   -1.07159826015128   -1.41207234042515
H           0.24325673043054   -2.41476733100709   -0.19421004572734
H          -0.87052274717928   -0.70447513968077   -1.05274962154781
H           0.35862163689402   -0.34625446353388   -1.90452202685599
N           1.50159016305280   -0.53797441534198    1.56140217754840
H           1.12892685134167   -1.51397483023890    1.31411551317306
H           2.09385173943626   -0.20412711685756    0.76080635974124
H           0.63766962534765    0.07295630924002    1.64037198215025
H           2.02104511987739   -0.53625351119950    2.43160825381754
