    26
        -50.46162540  Gyration_radius:  2.55221514311 Dipole_moment: 4.689
 S           0.86935828998318    1.31341074642403    1.61733161675776
O           0.13086387278318    0.33010448484294    2.37400142437755
O           2.09002707813296    0.81321327911714    1.00927334007956
O           0.00766828335268    1.97854983353194    0.63617023444852
O           1.31896456951377    2.43353734069997    2.64843664027888
H           1.95911853212572    2.95825560332771    2.17534386670026
O          -0.25312021598743   -2.17483493683203    0.01239183594218
H          -0.57316070031525   -3.06357725819794    0.17399955830430
O          -2.44606175703331    0.12258638937974   -2.31672022317186
H          -3.04938346981552   -0.44637061533747   -2.79571897790784
O           1.44403862620209    1.17108360809296   -1.57054207579381
H           1.87223557056058    0.94786380050875   -0.72438465434952
H           0.77939407039897    1.82221114920894   -1.32000949024009
O          -0.03772024538665   -0.87301491508286   -2.49285613017880
H           0.01518891487979   -1.46078536525852   -1.72623792777241
H          -1.52646060308029   -0.20468003176926   -2.52916908441384
H           0.58625773830594   -0.13974163917715   -2.29889564985645
O           1.62925510270948   -1.72716213537283    1.73715930966892
H           0.53120247078620   -2.05242676970262    0.62647805255331
H           2.24279035036642   -1.09549195747226    1.33416429210024
H           1.05143546307537   -1.13827088267530    2.26195802080786
N          -1.74979989543490    0.09357669152056    0.23958760159616
H          -2.19228958436923    0.17731608830578   -0.71486786789253
H          -1.19341958315800   -0.79138312527842    0.26212845767130
H          -1.07628763645523    0.90681195539835    0.38869918295263
H          -2.43009524222232    0.09921865174359    0.99227863738236
