    26
        -50.46162538  Gyration_radius:  2.55215135155 Dipole_moment: 4.694
 S          -2.08060534988828    0.73327602379085    0.47898605300974
O          -2.24100880059179    0.40754930009879   -0.92753248793424
O          -1.94343233184498   -0.41232202176432    1.34703709065847
O          -0.99112212650744    1.68976181427671    0.69342643072913
O          -3.41609710396474    1.47345721613419    0.91367511528700
H          -3.58683557107256    2.09908440831668    0.21483998260908
O           0.70577606100645   -2.06788338608306   -0.14805510939265
H           1.00872660843081   -2.95444819246456    0.05371201316641
O           3.19584942963759    0.89230403663143    0.59295874377688
H           4.07032790287662    0.51535153476780    0.69459833248915
O          -0.00630373546574    1.55124557718814   -1.87599257236877
H           0.04551672400406    2.11594019884336   -1.09704433252229
H          -0.84413768814651    1.06977597240621   -1.75160646683543
O          -1.85003819641808   -2.21924887100017   -0.55326510345968
H          -0.26419682706323   -2.16021863092814   -0.38876709781732
H          -2.04327315357565   -1.80434676159147    0.31068823976938
H          -2.08437087768066   -1.51056275762586   -1.17037300055023
O           2.11493463846042   -0.07321118428543   -1.58003997673719
H           2.87789430519743    0.61800543583346   -0.31347101227224
H           1.65983458414202   -0.86729928085643   -1.26642761787664
H           1.40005335833040    0.54794873527819   -1.84015205245261
N           0.86405413274723    0.06658160237423    1.54244539896307
H           0.73577594945992   -0.79918299955093    0.97055023402503
H           1.82741869097846    0.44937254122076    1.34474912533239
H           0.13158831464175    0.77607885542002    1.23007425095355
H           0.71367107232790   -0.13700914644297    2.52498582945807
