    26
        -50.46306227  Gyration_radius:  2.54996428635 Dipole_moment: 2.582
 S           0.49349983940293   -2.17341590039766   -0.10090211194979
O          -0.63667920472182   -2.55821471245478   -0.92056337785927
O           1.45009969909225   -1.33836373067377   -0.81648057318010
O           0.11330595547597   -1.58151852428082    1.16839925113801
O           1.24705486139052   -3.52980614218943    0.24206174435043
H           0.99186143084302   -4.07371036432110   -0.49586494775302
O           1.41592026616375    2.47517757904508    0.35349095295670
H           1.92500317775318    3.18601082915105    0.74555941605685
O          -2.29953641355557   -0.58354258306998   -1.51249459310106
H          -1.81215427696974   -1.43286611069640   -1.44228456519965
O          -1.23283714483494    2.52953043624743    0.81663514793885
H          -1.53818892658558    2.75610923939420   -0.06532951945631
H          -0.25308329081833    2.51114947346787    0.75352410984808
O           0.02548860400527    0.82010140906856   -1.57339092782032
H           0.55728198341012    0.01555656008928   -1.42934866067252
H          -1.62133782836823    0.04388062430612   -1.81703388342509
H           0.52043276608603    1.52554890147745   -1.14188911014724
O           2.73304709933972    0.23905026252644    0.83746505968512
H           3.63293861348413    0.16945747656968    0.51281463716058
H           1.88575031558521    1.63537521748470    0.59208151318491
H           2.21376553027639   -0.41422987967190    0.31378311786156
N          -1.98235307201784   -0.03900800084321    1.02069148527704
H          -1.70015710938021    0.97148516086453    1.07263778762516
H          -2.28603089618015   -0.24694174025143    0.01232362998849
H          -1.13202107764564   -0.65264370795615    1.18275377379625
H          -2.71107091124102   -0.25417178288998    1.69136065369640
