    26
        -50.44778574  Gyration_radius:  2.5029495857 Dipole_moment: 3.943
 S          -0.34522143570847    1.81823945550501   -0.73439029611836
O           0.74588155586839    2.72914894119848   -0.96464325411682
O          -0.30367983283771    0.66457504060371   -1.65089393478421
O          -0.50877444290770    1.38170578143061    0.63364683752879
O          -1.66678105158643    2.61370704602806   -1.11372418055522
H          -1.33974355539885    3.29572970652344   -1.69157419592079
O           0.83772835585479   -1.97871336562382    0.97601475141288
H           1.44612877654406   -2.69958500462186    0.80768982034242
O          -2.97209370707056   -1.48489925308603    0.53413269127765
H          -3.36696463266098   -2.29932036519255    0.84991969297114
O           2.45953794580757    0.94374894698078   -2.01327873951257
H           2.01571970940101    1.75717940318640   -1.71264270860531
H           1.76415023365729    0.45569782181567   -2.46351702222297
O          -1.29414426451784   -0.56436970216870    2.29568823199183
H          -1.07102266636437    0.26516607168028    1.83248830656614
H          -2.48243238366035   -1.08013355411361    1.30539964409579
H          -0.52038773702822   -1.13056370069638    2.18087849825291
O          -0.85988832243211   -1.60346682877362   -0.87457012134224
H          -0.65114518255484   -0.61560861883786   -1.22902235245146
H          -0.16081489933726   -1.78868781440032   -0.13231653368909
H          -1.77363765951930   -1.56415859276102   -0.40507781020329
N           2.08464963268965    0.23224267252029    0.71829529421763
H           1.39875644373023   -1.09393162675645    0.90732338357111
H           1.30611368175311    0.88313259812864    0.80379799542818
H           2.80551318083997    0.51417738908142    1.37010975878132
H           2.45255223743855    0.34898755234342   -0.22973376691836
