    26
        -50.46306184  Gyration_radius:  2.54966644646 Dipole_moment: 2.584
 S          -0.10890214091249    2.13467817023814    0.63517922375027
O           0.44681597460126    2.69301528320205   -0.57993343558863
O          -1.42278089797791    1.53759446348408    0.43112153509519
O           0.79113048390440    1.22422472385376    1.31851514008676
O          -0.32255065789680    3.37190504183453    1.60925057557949
H          -0.42892782723071    4.08202020211981    0.98477975780225
O          -1.37999139124587   -2.44913407005710    0.58198459007488
H          -1.70604999657306   -3.22582675257934    1.03869296912723
O           1.18028803355253    0.90367590942844   -2.38940838021261
H           0.95399469334590    1.71640851305431   -1.88729913193297
O           1.04924261513894   -2.68221873298532   -0.54878527622570
H           0.20884734305611   -2.62545725294711   -0.04412358663538
H           0.78899558738319   -2.68160145520606   -1.47324904038658
O          -1.84978294021863   -0.38555792437303    2.16023687712212
H          -2.75823594679725   -0.21607553247957    2.41727050086743
H          -1.50447111969885   -1.68937417739337    1.20659470616763
H          -1.59570318785807    0.36941575537601    1.58056618108701
O          -1.00250143318305   -0.38327941704046   -1.41131005692679
H          -1.29170956215720   -1.16539405554523   -0.92804466574659
H          -1.23422235361868    0.36832580833533   -0.83495536684970
H           0.35334486266382    0.39134285427483   -2.37779281702779
N           2.19573197718759   -0.26961859939506   -0.29038672928069
H           3.19442161044356   -0.24963884487773   -0.11908574249609
H           1.93655480772780    0.18500295926710   -1.22767829230918
H           1.82723027409105   -1.25323588014600   -0.29386713689308
H           1.67923119226538    0.29880299056182    0.44172760175052
