    26
        -50.44778621  Gyration_radius:  2.50285579804 Dipole_moment: 3.929
 S           0.25328312739017   -1.75488233496797    0.90299538174140
O           0.71608751599665   -0.52572778303127    1.57180041688433
O          -0.83891754636735   -2.37437911057995    1.60784899557500
O           0.02626833233046   -1.51909024979835   -0.50486690882037
O           1.46856340988047   -2.77326084221767    0.99865848051426
H           1.23164252882580   -3.30844291640172    1.74924188612191
O          -0.76271167179732    1.99322193623035   -1.00762175542573
H          -1.14708387396436    2.84376196638369   -0.79085144577411
O           2.83403151268907    0.72837321918546   -1.66210784746342
H           3.23676473182403    1.39554924999702   -2.22033536319008
O          -1.77358069418569   -0.15310289157908    2.79863412384152
H          -0.89526093450702    0.21759537343194    2.92315688157165
H          -1.60142121364377   -1.07199038445377    2.52481883552436
O           0.53427079357977    0.00978841180735   -2.64252733913723
H           0.33942229001523   -0.69365852773436   -1.99465328540979
H          -0.04817222589934    0.74086615681942   -2.40024496675446
H           2.05418812660291    0.35858804199248   -2.16552685113822
O           1.36321290619850    1.46368703747050    0.27586870183470
H           0.49973912425771    1.71354049094908   -0.23988820296212
H           1.11803791973098    0.59169624240687    0.84556212182094
H           2.04785960778570    1.17266745544567   -0.43369176664169
N          -2.21181985617539    0.15139933992897    0.00131190189961
H          -1.41141941440350    1.26578869813829   -0.61749803628637
H          -1.62966280034302   -0.65942430074743   -0.20034096091797
H          -2.25797753885016    0.22422293205400    1.02127454409432
H          -3.14534412697861   -0.03678721073043   -0.34101752150110
