    26
        -50.45476263  Gyration_radius:  2.60399366565 Dipole_moment: 5.773
 S           1.63582762902899    1.00735363499667    1.79531964600004
O           0.64502618683705    0.37774727145325    2.68235778470579
O           2.59168143780685    0.04430498033584    1.28908208641120
O           0.97552001028610    1.79289832755094    0.78060555242069
O           2.46770555176383    2.00903422665078    2.70553149683220
H           3.09893961682654    1.42507078641198    3.11451776491077
O          -0.46119498697255   -2.26707674598140   -0.07049284976135
H          -0.18201528839946   -3.04146150485671    0.41879451121005
O          -2.21639076249743    1.00389452848144   -1.19657325750607
H          -2.87238165080332    1.50868510020707   -1.67723175875428
O           0.56375153750861    1.26829367918166   -1.77924470671963
H           0.87059786548347    1.62760045110487   -0.92371678713461
H          -0.39766196856889    1.35516472763426   -1.72610080211091
O          -1.44727569602775   -1.21218701423498   -2.43234792543982
H          -0.61099833532598   -0.93151721457037   -2.81688153743922
H          -1.21398211159035   -1.79972392931250   -1.69611034793662
H          -2.07195449426744    0.16354232186048   -1.69743794728189
O           1.60450357869950   -1.04900760328594   -0.90347259511086
H           2.08496699278919   -0.71324881579011   -0.11452563403971
H           0.40036044717742   -1.82246330424645   -0.39970990408847
H           1.30184403874334   -0.23744837608380   -1.36667151825603
N          -1.37435024096593   -0.09427045005890    1.20279817708738
H          -1.52982981929613    0.60741217091509    0.46491111699831
H          -1.10488295236716   -1.00202975673134    0.74250446797113
H          -0.53854618353400    0.18573305630159    1.85008078544189
H          -2.21926041232968   -0.20630052793333    1.75401419159058
