    26
        -50.46306131  Gyration_radius:  2.54945571544 Dipole_moment: 2.593
 S           0.02234304042661   -2.19659211596900   -0.38011811069179
O           1.32656763521485   -1.68148349875032    0.01783226919709
O          -0.80363216440340   -2.56311287163289    0.75148223222900
O          -0.64001429103112   -1.30773570634450   -1.31662682339231
O           0.29367087791325   -3.55291497200692   -1.16250545762802
H           0.21928955995784   -4.18979944650153   -0.45936787403364
O           1.69077154208771    2.25150698721927   -0.54198356248952
H           2.17490692026049    2.94198114038424   -0.99693903223168
O          -1.68946357703347   -0.52222439586043    2.18830829278125
H          -1.45230636807670   -1.40366327812596    1.82691113801271
O          -0.87479603740883    2.80050355406670    0.04969435738907
H           0.03667736019877    2.62071583205203   -0.26818854555186
H          -0.79588619625257    2.89587347798141    1.00205886076559
O           0.75257194212660    0.46946954075416    1.53639871483747
H           1.19737670176631    1.16604489826433    1.04051340831160
H          -0.82931349884712   -0.07833922769390    2.28726303381708
H           1.01633615350274   -0.36001410904827    1.09696877346254
O           2.25193881932933   -0.01222308580275   -1.77887167405163
H           1.82254241056897   -0.67281022709300   -1.18743447392921
H           1.85772995950340    1.41672490763981   -1.05006503831173
H           3.17222400499909   -0.27732620645717   -1.83246233432414
N          -2.17586247775342    0.46413450999704   -0.17878511819005
H          -1.58664276013321   -0.22335686463598   -0.73200884622940
H          -3.12180937878590    0.49619414010460   -0.54108972632778
H          -2.14170198306246    0.10676165042733    0.83298279087804
H          -1.72351817503893    1.41168536702984   -0.20396722429881
