    26
        -50.46306136  Gyration_radius:  2.54946602114 Dipole_moment: 2.588
 S          -1.52404868115741   -1.49594151069419   -0.63754052333036
O          -0.80263642824951   -1.97537403785791   -1.79800933739855
O          -0.87490074058954   -1.85508387104978    0.61709642390404
O          -1.83360894620840   -0.07926752810791   -0.69252244726927
O          -2.91636951768269   -2.26166054638852   -0.65948958361961
H          -2.68196057942251   -3.05785800680829   -1.12501710408949
O           0.82586129952607    1.26052885742227    2.44012961425350
H           0.83506809343784    1.80555840192627    3.22810994466450
O           1.49655957138028   -0.74615278161633   -2.26403722588524
H           0.71607289763138   -1.34161561701373   -2.26010976321031
O           1.56005755733182    2.47954521818564    0.15771148282571
H           2.40839282799176    2.05072352515553    0.02066037140850
H           1.21765887328529    2.11074582138394    1.00083287645770
O          -1.43288936053685   -0.10526467597150    2.48729414195136
H          -0.05159604403344    0.79912893968943    2.43426343534442
H          -1.31360429672290   -0.71269479734535    1.72088624933944
H          -1.59532018806977   -0.67478855811220    3.24185218907273
O           1.55898973545313   -0.71058648737082    0.45065552854749
H           1.84557773155864   -0.82281813542793   -1.35913961097628
H           1.53927030477570   -0.12897059668943    1.21894817584938
H           0.74347258094017   -1.24108303263394    0.51578679060847
N           0.05061870310399    1.36851756425874   -1.76310590962209
H          -0.77395320777558    0.86407163665656   -1.32548734761432
H           0.69928918400900    0.58783250375719   -2.11255437493708
H          -0.25891212759691    1.97357661468406   -2.51489918241963
H           0.56291075761866    1.90893111997082   -1.02231482385662
