    26
        -50.45476264  Gyration_radius:  2.60396238633 Dipole_moment: 5.777
 S           0.85141248902007    1.80468437211285    1.71223640822620
O          -0.31601524143122    1.44340005361317    2.48940518465044
O           1.92438482398922    0.80654440099583    1.84372587245529
O           0.58819063267602    2.08020095872772    0.32028189133771
O           1.41163039025691    3.14105170321009    2.36351268594306
H           1.25578142120499    2.98863062828077    3.29044890205907
O          -0.41183197752057   -2.18149804573656    0.65565516116668
H          -0.36881050458075   -2.67291311424248    1.47642600877871
O           0.46892289444435   -0.34787855459650   -2.64763516303341
H           0.56177601471906   -0.28129464667051   -3.59794165033432
O          -1.39945080608643    1.27529347961807   -1.22845250976496
H          -0.82631178881489    0.85827511844796   -1.88588449784799
H          -0.77573548230673    1.78869237738600   -0.67835917781435
O          -1.51938045732306   -1.91906306038060   -1.86784358618352
H          -1.20320242005294   -2.26013518170092   -1.01615496358636
H          -2.19756085509576   -1.27087680165277   -1.65351966875164
H          -0.23340996526887   -1.02109091640764   -2.47051161155354
O          -1.85299005099662   -0.12373068568166    1.02016492867952
H          -1.38125165777768    0.45526906849453    1.65908801031752
H          -1.85304055143954    0.38908058085848    0.18237772541953
H          -1.01501462251900   -1.37642915546152    0.84661724561472
N           1.67140596858955   -0.71950270637918   -0.18033572393744
H           2.53289394786415   -1.21853601128488   -0.37789065534679
H           1.34278063010946   -0.24076456911006   -1.03111498371237
H           0.91823472442077   -1.38397744845294    0.13542341909340
H           1.82659243392057   -0.01343184398926    0.64028075812693
