    26
        -50.45476266  Gyration_radius:  2.60379609749 Dipole_moment: 5.773
 S           0.09593265383545    2.41233890165467   -1.04059878609017
O           0.12552472537214    2.87291633980941    0.33211341946852
O           1.40586795439414    1.89980151186471   -1.47203786461056
O          -0.94118164403368    1.45237779218035   -1.33302020166466
O          -0.18587854919175    3.70070413636684   -1.92637816438573
H           0.31171490013856    4.36940500295873   -1.46605378056460
O          -0.87235360361214   -2.36798989881135   -0.99200194893318
H          -1.35769875367028   -3.10256138944622   -1.36743908199413
O           1.60302840401180   -0.72580479182270    1.50302003277598
H           2.37973517504688   -0.34722396325809    1.91583000058436
O          -2.23071336815353   -0.20413466669154    0.27658582665563
H          -1.98209783677696   -1.00091526211490   -0.21130310963935
H          -1.97089801055432    0.51995926441324   -0.32618212490514
O          -0.44679888875741   -2.58235960884622    1.61623447610106
H          -0.69167659898188   -2.59226827996601   -0.04598309167066
H           0.38701185196548   -2.10138490101913    1.73915866375019
H          -1.13383219854501   -2.00650419926415    1.96602460953671
O          -0.36718276235907    0.81990296077900    1.91916242928055
H          -0.18649429918716    1.65983072156492    1.44173798859677
H          -1.14452249144855    0.43934459948277    1.45468812965271
H           0.83614969654514   -0.08048919026590    1.71288767744100
N           1.27397748376344   -0.62424168760613   -1.15349581664511
H           1.96432743460498   -1.10605581074880   -1.72054175001562
H           1.29576933035723    0.44815238725687   -1.36648974749183
H           0.34031889934584   -1.02310393125254   -1.32706278949471
H           1.49197049589297   -0.72969602721899   -0.12885499574614
