    26
        -50.45476266  Gyration_radius:  2.60389454767 Dipole_moment: 5.776
 S           1.80270272055619    1.81106530159744   -0.61876020326693
O           2.64086293420913    0.60211895071120   -0.64508367993017
O           1.04902958397040    1.96842568038024   -1.84541989833869
O           1.00908849899903    1.84720268072244    0.58606390763043
O           2.80649394560527    3.04120637162471   -0.56345331570508
H           3.04853599226226    3.13917183763734   -1.47918979493688
O          -0.80037761511345   -1.01922992264785    2.38155605030834
H          -1.12322255650553   -1.18368352233572    3.26749361950309
O          -0.44315381061400   -1.78575479730070   -1.40444363726098
H          -0.12877808140767   -2.08341239357441   -2.25859827201295
O          -1.55935500779669    1.32743457361284    0.94824134858375
H          -0.68180085938307    1.74835335231175    0.85943746400436
H          -1.40974789699891    0.63601744617335    1.60722879464736
O          -2.48026893782460   -1.76311851055496    0.46978144579690
H          -2.87719102344149   -0.91970307014216    0.23080080648756
H          -1.88610432723953   -1.99103602044205   -0.26282108772966
H          -1.45635827207417   -1.41350268613014    1.75538562570372
O          -1.21331976859851    0.62350093796150   -1.62161934540827
H          -0.75813380501587   -0.82190256390051   -1.54632939117985
H          -1.49321006891575    0.92558788160258   -0.72987565962202
H          -0.42045132332173    1.16777311256911   -1.82443218987935
N           1.27806910844953   -1.18271004291547    0.55776354355551
H           1.89194728688288   -0.39226262156008    0.11691145371882
H           0.63868995027088   -1.52513922307580   -0.20537087177802
H           1.86948600542804   -1.93457263879441    0.89715752480729
H           0.69656733761728   -0.82183013353174    1.32757574230056
