    26
        -50.46869419  Gyration_radius:  2.51896114335 Dipole_moment: 5.464
 S           0.11724351599949    0.14243833510824   -1.05523316669168
O           0.11028508163191    0.01363134196546   -2.59755933458717
O           0.13105614138428   -1.20477751658830   -0.47502711087969
O           1.28385797573449    0.90093027579304   -0.63580707617633
O          -1.12924546095609    0.83143669080308   -0.72631892728186
O           0.83772250561855   -0.25230450682058    1.84047759917656
H           1.28843570961234    0.51933181380361    1.47612950928117
H           0.60702532259704   -0.77118078285104    1.03282089700248
O          -2.46903800693160   -1.10320730423392    0.39811544125161
H          -2.16309960950227   -0.35216748882948   -0.16204286885689
H          -1.80166652032410   -1.77592943091775    0.21339627764226
O          -1.68831782965305    2.55684988758393    1.15398648217154
H          -2.42815564243480    3.06852901633045    0.82257138145980
H          -1.36835672939982    2.02547098908165    0.38504061600855
O           2.94329200508624   -1.14088621171919   -0.71374344965894
H           2.30526708177390   -1.79896654196704   -0.41983770634279
H           2.47742896872384   -0.28337885102360   -0.60340246100958
O           2.42939409610785   -0.94627180596132   -3.28653913621705
H           2.95379224308589   -0.21760930083116   -3.62517955509716
H           2.77438657046484   -1.13703552730451   -2.37757580225785
H           0.96373726883377   -0.40144020313414   -2.90343604858164
N          -1.65416423417579    0.26394681983767    2.49195500428108
H          -1.79029287996699    1.24931016756140    2.15407091732731
H          -2.11748956816034   -0.37390339929867    1.77305349452587
H          -0.61114084073569    0.06680378506464    2.40724040161827
H          -2.00195715438907    0.12037977856986    3.43284458191451
