    26
        -50.45476259  Gyration_radius:  2.60396134828 Dipole_moment: 5.774
 S          -0.02226976287506   -2.13996327329244    1.52757478256341
O           1.30157594677760   -2.29077028245517    0.90334289615739
O           0.00859251598577   -1.20336370353819    2.63181056910509
O          -1.02200908305418   -1.85887414711580    0.52546544889907
O          -0.37203127978917   -3.55263217717907    2.16464310291998
H           0.10142092474442   -3.51895428758894    2.99014942131562
O          -0.78265742653307    0.40321637979349   -2.56413639662170
H          -1.23881499901208    0.47716296446372   -3.40233257914081
O           1.65278093934617    1.60660999221974    0.20416672252661
H           2.41811430176751    1.73858760143514    0.76440026372356
O          -2.21583254067750    0.41791546148790   -0.09749832705141
H          -1.99571029027398   -0.48058591611012    0.21780975693107
H          -1.94017499321811    0.40333255817689   -1.02403593660716
O          -0.31373502203138    2.73176139815455   -1.38609643623027
H          -0.58016721977526    1.32257875256108   -2.26134790615401
H          -1.02023146677190    2.75706901704731   -0.73321767806338
H           0.50011270190503    2.56019458855557   -0.88617726566493
O          -0.37583420769716    1.23163611104585    1.68333956817775
H          -1.14239984064759    1.05690615977642    1.09453621406538
H          -0.23735178292888    0.38315733879616    2.15973674512992
H           0.86188321839996    1.47908434304658    0.84197682683914
N           1.28420993627535   -0.70809110519111   -1.09283446334720
H           0.36665731139119   -0.61825975144262   -1.55229305903608
H           1.98732020826990   -0.96777207425669   -1.77728680561591
H           1.52038966278163    0.21553161492714   -0.64594097339524
H           1.25616223764460   -1.44547756331440   -0.28575449142644
