    26
        -50.45476264  Gyration_radius:  2.60376054746 Dipole_moment: 5.772
 S          -2.61453164276394   -0.14608814869590   -0.23144047616485
O          -2.50966984814789    0.26227313992985    1.17816320528209
O          -2.47846555255177    0.98233641420890   -1.12888398449542
O          -1.72056544849354   -1.24567094902382   -0.50455212075656
O          -4.09799408429413   -0.68054200279152   -0.42576163571228
H          -4.58463807712632    0.12881583559354   -0.54762874444206
O           1.85806011960369   -1.82908677869860    0.74377437518398
H           2.43685591460465   -2.58391159443456    0.85047680303813
O           1.04190848534905    1.96163832031541    0.64860713727517
H           0.75933179622981    2.84903891901616    0.87152007040027
O           0.60780696696273   -1.27558098591584   -1.75963295714001
H          -0.32693695953984   -1.38350304880642   -1.49549595174286
H           1.09521326738401   -1.65604448173618   -1.01637545117602
O           0.08867337102339    1.35733147570259   -1.62532614039813
H          -0.88889307040238    1.31655700232155   -1.53200963005225
H           0.65089221288364    1.77156494736505   -0.27842058347200
H           0.35265213692284    0.43134502741110   -1.81931567407583
O           3.05109619035439    0.30289022813653   -0.28691171385712
H           2.41955369559933   -1.07268816501074    0.44309732914862
H           2.76863005063484    0.24970057558851   -1.20525979909963
H           2.55004569796550    1.03831372528769    0.10005083121953
N          -0.08210321423174   -0.16965958613136    1.81889461887005
H           0.39870831378540    0.69563494907488    1.46013505478360
H           0.33736956965966   -0.98752572290446    1.35406133574076
H           0.02723186559368   -0.25223016393000    2.82462164156483
H          -1.14023178700555   -0.06490891187259    1.56361248007878
