    26
        -50.45476261  Gyration_radius:  2.60386460149 Dipole_moment: 5.774
 S          -2.01654328385205    0.00036316342394    1.68699698649608
O          -1.18086478069417    0.86079900991049    2.49857586338139
O          -2.62663947029018    0.73241726939266    0.56593748526297
O          -1.36734225310650   -1.19774838491276    1.21182617880701
O          -3.21769987981621   -0.44979522191515    2.62422395536250
H          -3.37777434453807    0.33958490864515    3.13213425735087
O           0.71744745653966   -1.72539290057419   -1.96456619692855
H           0.97117085843719   -2.47161372177423   -2.50761783340813
O           0.88635482888154    1.97612269210203   -0.81608436962367
H           0.71706392259723    2.91008139074490   -0.68932694687314
O           1.20148708283516   -1.71238315146150    0.84696058095965
H           1.10764580847396   -1.93436289714768   -0.08928753266230
H           0.27793755703653   -1.68058547112389    1.16514592617957
O           2.68688605057188   -0.01108431463407   -1.50337108319954
H           2.95428402587948   -0.26736852854577   -0.61521804469377
H           1.49226696426810   -1.11178996655500   -1.93322617102468
H           2.21893009996388    0.83316871621046   -1.40377086435231
O           1.24591309310979    0.90409272685163    1.45671251943679
H           0.39537236192091    0.96228030750574    1.94583661261724
H           1.37696511245173   -0.05850479352245    1.31164914098278
H           1.04253320345257    1.59363203417035    0.12081085159669
N          -1.10410599538636    0.29108099713519   -1.42829101335982
H          -1.79767352705622    0.40879512931247   -0.59103787238621
H          -0.67518822359253   -0.64542588345402   -1.43235324842810
H          -1.58762845248885    0.45138095437244   -2.30621883975341
H          -0.34079822558239    1.00225593582285   -1.28644032174034
