    26
        -50.46155099  Gyration_radius:  2.57310085565 Dipole_moment: 3.469
 S           0.14128092441425   -0.15113548833462   -2.15534837457763
O           1.13681203496062   -1.01095439993886   -1.52431411324603
O          -1.18481537320530   -0.72835350977982   -2.11683928743892
O           0.19721708139197    1.20352551315535   -1.63099130997247
O           0.54888814839520   -0.03649898535756   -3.68322304528813
H           0.36078648848281   -0.91190107437078   -4.00585897120781
O          -2.16678983343258   -0.59406516773562    0.32530991900982
H          -1.98569597733491   -0.69593169067508   -0.63638947402795
O           1.30839080167977    1.33547621003520    1.95663654441521
H           1.93420332913066    1.50959598213460    2.66054876581570
O          -1.46735305518391   -2.95748619937707    1.78730060902499
H          -1.99670159078982   -2.27284119461056    1.35392210614412
H          -1.99101523392055   -3.75883591177863    1.76372068847408
O           2.32751231863516    2.02399879480144   -0.36582759854007
H           2.38202833513773    2.94951066713498   -0.61166799894157
H           1.74470765376981    1.62606955043547    1.11267525388190
H           1.60758687261498    1.64568984777721   -0.92578631846913
O          -1.22349773499220    1.89417016782180    0.57311306136042
H          -0.78861100960971    1.79171203429487   -0.29328620342740
H          -2.14606382792699    0.37361711089608    0.48265656557306
H          -0.51199703067157    1.89408014270633    1.22386322394359
N           0.37895855517081   -1.03223816209773    0.96178473116839
H           0.79596613275943   -0.23490719189109    1.47886637358348
H           0.80881687224802   -1.10370740315447   -0.00608316978505
H           0.44449660215627   -1.91103042677251    1.47284713098235
H          -0.65511149389502   -0.84755919531561    0.80237090154016
