    26
        -50.46155130  Gyration_radius:  2.57282120013 Dipole_moment: 3.457
 S          -0.02801624176486   -0.16100495552517   -2.15722224100054
O          -1.05450652745574   -1.16569792974348   -1.98393043418638
O          -0.47733384483113    1.16484672827704   -1.74651761190140
O           1.23627113689913   -0.51318969051505   -1.53220217018775
O           0.27204419996321   -0.07330085107318   -3.71166929894961
H          -0.60119997195881    0.01525208342254   -4.07969913952314
O           1.66833036879431    1.03609068270178    1.86332502245236
H           2.04031254876097    1.66231939185662    2.48536830701444
O          -1.35900675498842   -1.72611231402487    0.57328839780767
H          -1.35996672352438   -1.67704681300962   -0.40937864473627
O          -3.34209808206250    0.00195334853635    1.70998957229530
H          -2.88682657094279   -0.80092500076838    1.41883562915909
H          -4.27941663752079   -0.19138484494639    1.67449554385908
O           1.29383200774897   -1.71506945080001    0.89776494614635
H          -0.45672487081769   -2.03018202071998    0.80767564032141
H           1.38289789289008   -1.41693760629432   -0.02607679938257
H           1.53788368655773   -0.95696195125301    1.44125052344593
O           2.74959869436204    1.35242530499693   -0.51129831600086
H           3.63655133254995    1.03078500375277   -0.68394310308860
H           2.14824416431931    0.73702304390516   -0.99553679317986
H           2.12307053628998    1.19691976344233    0.99484858956488
N          -0.84632530786179    0.87380804050693    0.80975090916165
H          -1.05107891372294   -0.16866473258040    0.81217426058800
H          -1.65321680365760    1.33214725712174    1.23004502192163
H           0.03371390346450    1.05345645474327    1.32965592542770
H          -0.72703324149268    1.13945106795811   -0.21099372703940
