    26
        -50.46155128  Gyration_radius:  2.57284799312 Dipole_moment: 3.461
 S           1.53191419331791   -0.62489705860825   -1.39406654708885
O           2.14313003660080   -0.04032395957745   -0.20528249883290
O           1.07014926156371   -1.97668733621400   -1.16474538269059
O           0.51180914508458    0.24685888911206   -1.95313462256108
O           2.67282918993256   -0.70831888164629   -2.49203941638429
H           3.23798672676200   -1.38969304023279   -2.14248658787598
O          -1.22148704305873    2.32629291916593    0.65218955579574
H          -1.41039226359759    3.13890503079482    1.12280574846437
O          -1.10850276686507   -1.95567839276326    0.31838389965017
H          -0.34018166235320   -2.15546583015492   -0.26280175697301
O          -0.39170998955663   -2.09709307056891    3.08903154207774
H          -0.23054142518235   -2.92612558980093    3.54037012392980
H          -0.77884307061370   -2.32426778506547    2.23162620812566
O           0.46445704400756    2.77686604146207   -1.31309926005947
H           0.61825350881607    1.83154471340874   -1.55306836977503
H           0.16277633986041    3.19894283431590   -2.11979797008495
H          -0.59348323234715    2.56356756302231   -0.08011127088778
O          -2.05467268534008    0.10934561050020   -1.08982248468721
H          -1.20409422399586    0.14575196853068   -1.56475670409476
H          -1.70905090516263   -1.41578600855678   -0.23783267113078
H          -2.07147184670166    0.89021324985191   -0.52448811668418
N           0.14460611158662    0.09999459583354    1.45058629245569
H          -0.43099224597683   -0.70107905950618    1.05592263037134
H           0.32019998902008   -0.11979341287280    2.42971686653361
H           1.04032529920348    0.11615900306295    0.88136112004592
H          -0.37301347497018    0.99076699651612    1.32553967235085
