    26
        -50.46155132  Gyration_radius:  2.57282029396 Dipole_moment: 3.456
 S          -2.06077758391758    0.60218748713801   -0.26494349955408
O          -2.35669231787988   -0.79988983992334   -0.46418542655445
O          -1.62564554044596    0.88708593290802    1.09811897625302
O          -1.13268398749002    1.14163665895064   -1.24513441349698
O          -3.41784181237768    1.39382398988658   -0.47893338111230
H          -4.02079739513588    0.91242552104002    0.07832535527380
O          -0.12407771861781   -2.19715503899592   -0.55875557662362
H          -1.04186928135586   -1.84374056208818   -0.58763635962585
O           2.41418252870335    1.22599061149886   -0.00838981846628
H           3.20238245636685    1.65689774595617    0.32408293451059
O           0.57868659576513   -3.07273326602480    2.07758779762976
H           0.33219293365278   -3.09440804406005    1.14192667694855
H           0.22552017758609   -3.87266145402480    2.46814552372113
O           1.00049844098701   -0.30904193553633   -2.07960191150181
H           0.33144918039454   -1.77226243163598   -1.31604195700926
H           0.20111037563512    0.23489976823372   -1.95530269191643
H           1.69461573847564    0.12741142045967   -1.57229916234037
O           0.55831408667949    3.00568173647419   -0.55303503151401
H           1.76014896662620    1.94715934868902   -0.20600190161275
H           0.62365402630411    3.54385504570626   -1.34424705481181
H          -0.16971568273219    2.36318911107086   -0.73188044221341
N           0.62486193353256   -0.40346546494376    1.25770406115075
H          -0.26110002121254    0.17646268036387    1.33115745446698
H           1.41049238952860    0.18695740178138    0.92416474900039
H           0.83679416389628   -0.88592165069583    2.12956566274299
H           0.41629734704281   -1.15438479219675    0.53560942668238
