    26
        -50.46155126  Gyration_radius:  2.57319973091 Dipole_moment: 3.452
 S           1.72187412516320    1.14366477701010    0.64219970762655
O           1.76886531603412    1.66817686421756   -0.70534100961943
O           0.53167571952410    1.58040272687874    1.36400129466604
O           1.88527169779897   -0.29939498802450    0.70654283858200
O           2.96610089159028    1.75060211610905    1.41516883968211
H           2.89184811980131    2.67852541550380    1.21698192628756
O          -1.38745870900719   -2.13131622733437    0.92516341976813
H          -2.06824223374680   -2.63163103962000    1.37644585009965
O           0.01424214004949    0.42568868461287   -2.22980932198233
H           0.73631077784754    0.96349594924378   -1.83307925065851
O          -2.49574662956353    1.80583730243014   -2.14693577755220
H          -1.67597723495398    1.41745442203789   -2.48436444125199
H          -2.70326339631703    2.54127306048362   -2.72403240665595
O           0.63576004193276   -1.67465841272802    2.53964366023567
H           1.25649083994077   -2.37660080564064    2.74451038353844
H           1.12409023979558   -1.05860243617217    1.94223349711056
H          -0.65106268062009   -2.00260105230361    1.57935420967347
O           0.70471497013975   -1.90902360002951   -1.12801697959013
H          -0.03299830626117   -2.23388786128451   -0.59895727042451
H           0.32089488954358   -0.50230144238885   -2.14996370167936
H           1.27873739621430   -1.42162687229676   -0.50885917190310
N          -1.39043733781702    0.44904393631591    0.02946309290449
H          -1.57088824524440   -0.50812724092564    0.38762832434221
H          -0.71398315677699    0.95652817475060    0.67092841373400
H          -0.90096087511821    0.38723228314950   -0.91149540083311
H          -2.24585836995097    0.98184625601744   -0.11941069610772
