    26
        -50.46155121  Gyration_radius:  2.57283937726 Dipole_moment: 3.461
 S          -1.11527184823228   -0.15435579622422   -1.84733331225825
O          -2.23532724223535   -0.58029240918642   -1.03674196936123
O          -0.74834787762370    1.23526410077927   -1.59670059410490
O           0.03623710733262   -1.03614764476871   -1.75044249615218
O          -1.58657849099744   -0.22953749464042   -3.35938372215594
H          -2.41136869541089    0.24489323039056   -3.33601467625385
O           2.60832777834539    0.18343887407536    0.70140476564317
H           3.44468470450478    0.57862561754533    0.95002361728475
O          -1.47587097804276   -0.91201356303327    1.46506430329339
H          -1.92609722214099   -0.87874005566051    0.59085826479879
O          -1.80571843638178    1.54161771217119    2.90784327358113
H          -2.63374777662791    1.79552455746411    3.31636996474514
H          -1.90533901700865    0.61645809349602    2.64168082161323
O           0.76539326562349   -2.10625885531971    0.63204382153866
H           0.51229754534722   -1.89128096942108   -0.28450524346387
H           1.51623180040503   -1.53672995041045    0.83580990663776
H          -0.77616966439340   -1.59093227440342    1.36042995993380
O           2.44862562193169   -0.05269320826879   -1.91137485429853
H           1.50223567971584   -0.33220945288231   -1.94498710342230
H           2.61405120175086    0.11035827400758   -0.28931594321565
H           2.93518627351090   -0.74472567714417   -2.36332205416720
N           0.06771587098224    1.17166121221474    0.87017419345343
H          -0.18360289984493    1.95168470726912    1.47532098866647
H          -0.50409078402040    0.33683116661295    1.19384626233288
H          -0.22099159964500    1.34281563779520   -0.13685190056811
H           1.07753569317988    0.93674414753059    0.91610372592156
