    26
        -50.46155131  Gyration_radius:  2.57287572653 Dipole_moment: 3.454
 S          -1.78332555931466    0.62506644167556    1.05316009935388
O          -1.49347632958177   -0.77506354498594    1.34310079266886
O          -0.92755039843644    1.52664598761954    1.79334470125837
O          -1.79391960934886    0.88264551947359   -0.37741694932485
O          -3.26665317883321    0.88951645824970    1.54714183418514
H          -3.17294932768786    0.85059305454868    2.49348166241989
O           1.50783136856434    1.50430572715336    0.78605546772935
H           0.66419371556995    1.67022076047098    1.26434063270637
O           0.55386717922212   -1.34934740701704   -2.28053964923456
H           0.77004448707081   -2.08056616911192   -2.86022700494108
O           3.07508116113036   -0.50721717653372    2.09326588396324
H           3.54029808089970   -0.34825559946423    2.91511046187073
H           2.77492689125666    0.35727855617036    1.77831255512654
O          -2.05287364903562   -1.09816862842146   -2.05734084009929
H          -2.56302738945250   -0.71156475187145   -2.77163491368394
H          -0.43772385711451   -1.29907282288410   -2.24731076002769
H          -2.04306801391285   -0.41673212059200   -1.34290430186180
O           0.49141461036144    1.52912189111403   -1.68558369040488
H           0.67559217674384    0.68141447975206   -2.10644057975904
H          -0.39815049714914    1.44262176277914   -1.29628421048211
H           1.33193314906309    1.78586126627188   -0.13659054080029
N           0.91579320232866   -1.06224563652266    0.41130268454922
H           1.23539612469050   -0.05428872206163    0.51408823650034
H           0.89158444931235   -1.31528468239849   -0.59491469745975
H           1.56866846618087   -1.63300495033845    0.94587902962209
H          -0.06390724252533   -1.09447969308513    0.81860408610662
