    26
        -50.46155129  Gyration_radius:  2.57287077313 Dipole_moment: 3.454
 S           1.17755751037072    0.66100132559194    1.69030254840650
O          -0.11542511558394    1.33679105701202    1.68494732218488
O           1.08426764306137   -0.69745675975293    2.17922415202446
O           1.83980400637872    0.76631658446005    0.40053085240586
O           2.09645464180785    1.45490215017711    2.70973283591686
H           1.70150976689170    1.23710693906077    3.54781586570545
O          -0.05667573574408   -2.23897245817209    0.37127244955794
H           0.41221562741198   -1.83554585964276    1.13637249864347
O          -0.57184412816226    0.93899519090421   -2.47375028331218
H          -1.04696735008296    1.38378792174686   -3.17654133236244
O          -2.89372478497454   -2.26302959992544    0.77353062871134
H          -3.32467412911397   -2.85920723308256    1.38641539997276
H          -1.97836263795118   -2.56734862514119    0.69535676733682
O           1.37755452099596   -1.05884387790434   -1.55039661776571
H           1.71779837564589   -0.43616925989596   -0.88195520920962
H           0.55674549171928   -2.12679190852165   -0.38547731753297
H           0.78474558492889   -0.54326323738639   -2.10933759487000
O           1.09655822986961    2.59867163195320   -1.30314074894614
H           0.04660555000780    1.61057017056765   -2.08207855607193
H           1.35497983717685    1.99927190887426   -0.56230209466576
H           1.91852393136230    2.84028757781791   -1.73435190317261
N          -1.45896508182736   -0.02282156113068   -0.07626755370756
H          -0.94550541272056   -0.94717668384257    0.02715430810258
H          -1.03111295923903    0.62459972746186    0.64786110969500
H          -1.30021844362258    0.35476687215713   -1.02983634973600
H          -2.44184493860514   -0.21044201340964    0.11491881270248
