    26
        -50.46155131  Gyration_radius:  2.57281522912 Dipole_moment: 3.457
 S           0.81392434815413    1.98871401420117    0.25023778485286
O           0.68730292598559    2.12999186007879   -1.18405272511817
O          -0.48217945892032    1.88992660413566    0.91270321227933
O           1.70024828933325    0.90738926098783    0.64805817756531
O           1.49282655908342    3.31803097116534    0.78524356831509
H           0.95750371171131    3.99322030119581    0.38106538936927
O          -0.13901422044980   -2.25931044768176    1.48556527851321
H          -0.49363214371560   -2.91966696507766    2.08196326028230
O          -0.03256410035443   -0.16369051625491   -2.26443501986831
H           0.26856582853436    0.74795556516443   -2.04930763221447
O          -2.89146459214447   -0.32559127699262   -2.37151901859748
H          -3.40422572739162    0.04338985203804   -3.09117270109725
H          -1.96584529060813   -0.29482812421156   -2.65252527958578
O           1.68474942552039   -1.45804144432951   -0.67726546621298
H           0.70599464876972   -0.74404198354241   -1.98301231469783
H           1.86868766976483   -0.61357146632926   -0.22634881677852
H           1.18608621940728   -1.98826303833610   -0.04494209959881
O           1.21139890563469   -0.44590901598037    2.82569356605650
H           1.35212797381881    0.17489361051548    2.07092175183846
H           0.36731633729193   -1.61475788193145    2.04691167938769
H           2.08846032270463   -0.64579875819322    3.15850492759007
N          -1.41652793940992   -0.35702018256340   -0.00044793118700
H          -0.89378794325423   -0.36953822802352   -0.92529953478006
H          -2.40925242324667   -0.40461104171363   -0.22417400525992
H          -1.09839307017355   -1.15191589659085    0.58613841684182
H          -1.15830624608865    0.56304421827768    0.46149552207609
