    26
        -50.46155127  Gyration_radius:  2.57278841199 Dipole_moment: 3.457
 S           1.01636593555380   -0.55686363344824   -1.82650755928276
O          -0.34577270454865   -1.07942685677320   -1.83035910690882
O           1.06221093403580    0.85640255752085   -2.13255594852655
O           1.71822839117699   -0.90577127882232   -0.60227261159555
O           1.78894492270424   -1.30529463810736   -2.99141932831714
H           1.38511742026859   -0.93560380298859   -3.76994949866080
O           0.19130311208531    2.26107397793808   -0.07944218791209
H           0.57524924700588    1.91324025518004   -0.91586538291335
O          -0.56929671491696   -1.19058971267486    2.36420140255177
H          -1.06192932425084   -1.66970784801788    3.03147708299132
O          -2.63772722106803    2.65300921743092   -0.31020010589969
H          -3.02142838010391    3.36919349434969   -0.81699705533356
H          -1.69041930137294    2.84076541575711   -0.24714658942551
O           0.83839458446348   -2.85436193143361    0.89502581537343
H          -0.05227719146334   -1.86837858688375    1.85411412336992
H           1.13316635490129   -2.19424641085525    0.22257035138623
H           1.64414574524633   -3.24131526726697    1.24282474002518
O           1.55948022778148    0.68337001091907    1.58870002693200
H           0.93529332352967    0.16687931047446    2.11142777137894
H           1.79451846682799    0.12135027993382    0.82760511135960
H           0.81986471310687    1.98187909239423    0.61941311600213
N          -1.44139021468624    0.17467884146270    0.16522231342559
H          -1.28671818065539   -0.34174427406498    1.05202556037434
H          -1.12479725529210   -0.41419423785624   -0.65920659105635
H          -2.40278822522993    0.49390086052506    0.05732975598213
H          -0.82773866510815    1.04175515532368    0.14998479470265
