    26
        -50.45450941  Gyration_radius:  2.45184614248 Dipole_moment: 5.288
 S           0.17202005178579    1.81351565771662    1.02109984343498
O           1.01159158148345    0.73720216391684    0.52724560270201
O          -1.30410035141479    1.39275528092380    0.92189512541550
O           0.42495578580366    2.22868589190868    2.35326009209156
O           0.30026708445591    2.99430483607947    0.03444207362249
H           0.76380960829844    2.66835875224599   -0.79626972535070
O          -1.02344698902528   -2.32406250308707    0.61821798180635
H          -1.64689500519171   -2.98507787808928    0.92175410327288
O           0.21462054858312   -0.29602444179891   -2.74484559952199
H           0.29164712313366   -0.71956600043829   -3.60052265026362
O           1.58016523998116    1.90514184235789   -1.91758358451033
H           1.01344772443301    1.22837186424761   -2.33980321039138
H           2.15464313614109    1.41612694502779   -1.31912718759093
O          -1.82806137933610   -0.24156952539294   -0.93007332589201
H          -1.52742034571398    0.78287330492317    0.12443418683376
H          -1.19347263427934   -0.17506782454748   -1.66684374082655
H          -1.60993480799585   -1.06764170198767   -0.45003669572288
O           1.27509738642305   -1.61711846287617   -0.76622870266066
H           1.34581390789209   -0.81809058464855   -0.21508143711445
H           0.56738586936837   -2.13270092023239   -0.35104101458799
H           0.68659340553575   -0.87837006293736   -2.08285711313648
N          -0.31320176210690   -0.75522126170242    2.65461108587801
H           0.43682792892606   -0.23616319232208    2.20886230604581
H           0.02296515250272   -1.06138161293406    3.56020849352957
H          -1.04973713170352   -0.07737042413199    2.81518104671690
H          -0.76558112797287   -1.78191013229220    1.41910204619453
