    26
        -50.44778598  Gyration_radius:  2.50289113508 Dipole_moment: 3.935
 S          -0.80796914544349   -0.35858710282131   -1.78305346862714
O          -1.34552515231400   -1.04612426428031   -0.59525603780520
O          -1.75881383733646    0.56216818646451   -2.34997477838024
O           0.49960725616867    0.19306290775174   -1.50906129539937
O          -0.59737430875286   -1.49554340763227   -2.87219829975429
H          -1.38483117240208   -1.42322221273970   -3.40195742874786
O           0.78312993743735    0.86241843759252    2.05269102173551
H           0.47622662780474    1.12853679564064    2.92050599378978
O           2.30720975002130   -2.37771054528926    0.58955063921390
H           2.94541377783563   -2.67026582331226    1.24226836418828
O          -3.14853971519749    1.03772967193223   -0.09890430503076
H          -3.05251470724321    0.13464790539726    0.21665136299763
H          -2.83881712541833    0.99567093559619   -1.02152502329634
O           2.69245727495882    0.13199250510801    0.02475592187573
H           2.01847789689869    0.20483839560641   -0.67736144575122
H           2.31234512123534    0.59098123813056    0.78452870304685
H           2.60372503604771   -1.47683733812974    0.27499169485416
O           0.06429898699622   -1.47677838359092    1.37522515434380
H          -0.54578681684944   -1.32564714463367    0.50910372941507
H           0.92158543397627   -1.94668112386146    1.05710498358892
H           0.35066584951068   -0.53023950761224    1.68503069307870
N          -0.54644750116065    2.13043474537394    0.28208134901194
H           0.24734055960248    1.43907320048831    1.35818905177048
H          -0.44407591830770    3.12921406917037    0.15560387169173
H          -0.20523115903436    1.66685454315945   -0.55799231325007
H          -1.54655697903195    1.92001332648892    0.33900185144275
