    26
        -50.45450930  Gyration_radius:  2.45185349696 Dipole_moment: 5.289
 S          -0.68137405025440    1.89205635942990    0.56246116596087
O           0.52320124130546    1.08471178488019    0.62863946720782
O          -1.85746905501578    1.01349642958958    0.10385629284900
O          -1.05569364309846    2.53794061149687    1.76812831591801
O          -0.49620645369988    2.91151462018021   -0.58236000117675
H           0.30770775499727    2.64305765435467   -1.12330285225948
O          -0.55853812010239   -2.42604299098494    0.79831930522195
H          -1.06104927458950   -3.20552140925090    1.03847751812279
O           1.28396699080397   -0.57308229199095   -2.38479310757517
H           1.77743218284937   -1.05868837987581   -3.04672761813884
O           1.64511228598248    2.03793103955546   -1.71680942866560
H           2.06070061711605    1.84216792109132   -0.87052360400548
H           1.46478390909891    1.16589530418322   -2.12238250368849
O          -1.22833170635878   -0.93579748915633   -1.37206821291293
H          -1.00311185952494   -1.57700731184839   -0.66595903896650
H          -1.60768060309319    0.26241390752097   -0.55319707297535
H          -0.40476577124506   -0.76833922128763   -1.86562943763314
O           1.83087148710547   -1.21140212929460    0.08041692224259
H           1.48818258489487   -0.36596136980285    0.41968976834961
H           1.17454455744307   -1.86634558215540    0.36204152865241
H           1.60702666947350   -0.88083149938041   -1.48973855897789
N          -1.07617857425975   -0.45595259118113    2.51914912191057
H          -1.96396213753277   -0.03320870785776    2.27246612057269
H          -0.76259464638325   -1.72823230509435    1.48644997783709
H          -0.37012619578379    0.21090151274455    2.22348494032996
H          -1.03644819012779   -0.51567384588663    3.52991100179323
