    26
        -50.46869421  Gyration_radius:  2.51891267091 Dipole_moment: 5.463
 S           0.12618674638471   -0.20714461310979   -1.04357825798909
O           0.49954883977996   -0.80608834294278   -2.42102654731204
O          -1.14155739448042    0.49605982848096   -1.14635353532327
O           0.04269989247187   -1.29918687015312   -0.06768626482695
O           1.22624550899626    0.69640161894955   -0.71174630225041
O          -2.63645142309174   -1.65489452938862   -0.88593243244356
H          -2.25068604093404   -0.75574357863598   -0.97111666475174
H          -2.05447798293762   -2.10702377995054   -0.26676479343448
O           2.35874225183464   -0.61625735786333    1.23675549381486
H           1.78623988045131   -1.38891860572971    1.15109671923355
H           2.15634288105874   -0.11879281710750    0.41034626191070
O          -1.23093828361244    0.23006965625156    1.60761934430761
H          -1.62119919293958    0.79025255956220    0.92557252787103
H          -0.79281059494351   -0.48104486990031    1.08109712545071
O           1.24423002908347    2.97421050430975    0.56768415067097
H           1.13949999989953    2.19585225514254   -0.03160896119721
H           2.01441475148791    3.44508550888557    0.24507520894433
O          -1.54540651093802   -2.20639976408429   -3.21553177480166
H          -2.01130969139830   -1.68843866425186   -3.87541456215228
H          -0.23804548868310   -1.39566710531884   -2.74135503379195
H          -2.08339159992628   -2.14663483643849   -2.38565963193623
N           1.01173988256412    1.22234459057131    2.54906156638172
H           0.02822401219592    0.88307767549168    2.32216667938682
H           1.66064981857527    0.45457780144509    2.19147106998578
H           1.17457942998061    2.06338470557558    1.94100057513149
H           1.13693028910370    1.42091903022073    3.53482804910887
