    26
        -50.46248940  Gyration_radius:  2.47958485964 Dipole_moment: 4.752
 S          -1.69492615559583    1.05788211955542    0.03760618595611
O          -0.63092082438358    1.63851662217770   -0.77290478979273
O          -2.29843476902814   -0.08847984939441   -0.63973687007694
O          -1.28826382723640    0.73164330947130    1.37871781391840
O          -2.82123473560116    2.16515667385183    0.13771907644957
H          -3.01253809443909    2.34493940853286   -0.77715925928555
O           1.52711656038713   -1.12210916631433    1.14506869763778
H           2.17606970767747   -1.63804372805293    1.62452372007430
O           0.02503603162461   -2.35819510156701   -2.27228962160224
H          -0.67021955353317   -2.07143136072072   -2.86766613355643
O           1.64299174958322    2.66466355357161    0.20597522112226
H           0.76194459825370    2.43221519707742   -0.14799118596231
H           2.27290703711960    2.34384874519257   -0.44319514358317
O           1.23948749737054   -0.16383960910250   -1.46260702956156
H           0.59372115917897   -1.55793696148570   -2.12090086561923
H           0.54551520100863    0.50775142852188   -1.30755070547619
H           1.53546361099144   -0.44428211802902   -0.58271340152087
O           1.15958014006279    1.10078527254417    2.35870228314795
H           0.19344781760667    1.07885766911443    2.21877497639391
H           1.41807268009197   -0.25539784181367    1.66284101731272
H           1.47842974600233    1.78316246403979    1.73322744529897
N          -0.83610222566684   -2.05170228497426    0.20334900344069
H           0.00251019844599   -1.68467335750393    0.71035139712618
H          -0.51297787709315   -2.39887966378320   -0.74580166523030
H          -1.30580433972228   -2.76908081364665    0.74449287392629
H          -1.50087131310162   -1.24537061725887   -0.02083303054190
