    26
        -50.46862764  Gyration_radius:  2.47509977461 Dipole_moment: 3.984
 S           0.57776874888708    1.23388285035918   -1.78551239742832
O           1.82634767190969    1.77030045857119   -1.28459432770531
O           0.59859263330637   -0.16624232516016   -2.11054984571638
O          -0.54762623281871    1.55266841433083   -0.89079657607588
O           0.28547332995457    2.02851149097867   -3.12936549562577
H           0.71899794688700    2.85623154838100   -2.95019047014704
O          -1.34667896337401   -0.45653233758242    2.32986306704452
H          -1.74083950694640   -0.33956285586410    3.19435860384751
O          -0.51710329298224   -2.40438352122423   -1.19220161702695
H          -0.00428217291044   -1.77796907914963   -1.73666607310772
O           2.32919070643167    0.18465264664432    0.70642833929383
H           3.27368358333924    0.02394555668592    0.74495050929135
H           2.18063240051338    0.75521579556432   -0.08730477752681
O           0.71668208351240   -2.03140558215415    1.14069810526134
H           1.33805087361739   -1.30680286232302    0.95445930037006
H           0.02881190188145   -1.64906022396946    1.70215568920271
H           0.01246879053478   -2.50014678959409   -0.36639052359755
O           0.15801235724719    1.56414196938631    1.69851898617973
H           1.04958400724131    1.19155658612056    1.61973915031422
H          -0.11438940197650    1.73707242900100    0.77544147027488
H          -0.77405750511197    0.35096625131938    2.16636951033665
N          -2.04361069007235   -0.52247247752069   -0.29896909913874
H          -1.51320628055746   -1.38448655431047   -0.70892992610940
H          -3.00342820851038   -0.47672649849072   -0.62045337322989
H          -1.98892126147031   -0.56713089379380    0.73652211687501
H          -1.50015351852318    0.33377601378841   -0.60758036586634
