    26
        -50.46869418  Gyration_radius:  2.51903567455 Dipole_moment: 5.465
 S          -0.31412841333534    0.49175028500344   -0.89834045350634
O           0.44554621114860    1.50551447062970   -0.16913946836813
O          -1.63524117923335    0.28852254464260   -0.32768859970907
O          -0.45087647382620    1.04872884079831   -2.33590403477301
O           0.43193336243433   -0.76995201587500   -0.95645849355417
O          -2.03143527838284   -2.05581190311380   -1.45722633253261
H          -1.11603071992678   -2.34851804799209   -1.40381907511117
H          -2.05134006273725   -1.22170486149916   -0.93915044443119
O           0.30578919631732    2.29192582731789    2.31835625577012
H           0.19704642309484    2.05439506835387    1.36561952973811
H           0.63407715190114    3.19259331829562    2.32267086032280
O          -0.33886210106333   -1.39229960674599    1.44894476627657
H           0.01070016498252   -1.32311987281538    0.52816017158513
H          -1.16167407067918   -0.89016894691017    1.40256038963158
O           2.71579613750678    0.26450650409818    0.15992921161173
H           2.46114499760249   -0.50248819706733   -0.36823854222717
H           2.00050865909055    0.90765185370870   -0.05485458233349
O          -2.03746283169992   -0.56319888455007   -3.62361664566497
H          -2.11275503546334   -1.26550039382603   -2.92877102063134
H          -2.89807683579448   -0.14179633623893   -3.67370644966460
H          -1.01093795265677    0.43125414713113   -2.88301754597430
N           1.61368015662948   -0.00860736478379    2.53228393854994
H           2.10961883043738   -0.33536152620970    3.35333282534693
H           1.18717158340042    0.94204566184890    2.66638393693618
H           2.23359577313801    0.05244688208662    1.66607783266869
H           0.81221229713907   -0.65280744624901    2.25561197998731
