    26
        -50.46432137  Gyration_radius:  2.3875839686 Dipole_moment: 5.088
 S          -1.33030670050815   -0.08219693236942    0.57728306756603
O          -0.78945209546338   -1.39375547483075    0.19088334137765
O          -2.42870934954018    0.32131122477598   -0.40112036870376
O          -1.88072353434721   -0.12324258036633    1.91911884612612
O          -0.25188595766157    0.92364303413649    0.48717039382604
O           0.43449390086902   -1.43202876759697   -2.19911448623452
H           1.23608295622215   -0.97552252513647   -1.89551596789091
H          -0.04842853450969   -1.64061546648852   -1.37879603329663
O           1.71920476851613    0.20127253228239    2.16654750525727
H           2.37175421909288    0.05065308528137    1.47193276903340
H           0.98834420794878    0.66945855700466    1.71340210647376
O           2.05284376018513    0.30514457751274   -0.76255135569595
H           1.18640845791897    0.47988086997424   -0.34405411722864
H           2.22716893665443    1.07835593686760   -1.30469607118743
O           0.06053185373923    2.59061220849793   -1.57083732557613
H          -0.44513032403983    3.40034702058736   -1.49095155155779
H          -0.08072511694458    2.09364161217757   -0.73874300640293
O          -1.31444453267619    0.50117583752082   -2.64995025943514
H          -0.68146987526258   -0.26102436099043   -2.67062542919483
H          -2.03509313398460    0.36781165899893   -1.36264140215508
H          -0.77147604851671    1.30178708315685   -2.51457580273149
N          -0.02100372187596   -1.72026572537681    2.59912122204017
H          -0.87122367573329   -1.08497941235351    2.69359754586983
H          -0.16388380178972   -1.98634758681160    1.58776985151890
H           0.82746626817876   -1.08804388706758    2.62686658036004
H           0.00965706352773   -2.49707250938345    3.25047994783807
