    26
        -50.46248956  Gyration_radius:  2.47951344676 Dipole_moment: 4.744
 S          -0.78435034274546    1.67818063146241    0.74870848027959
O          -1.58751800154875    0.79673248751664    1.59433445492315
O           0.63794383984414    1.49869571211518    1.01514278056959
O          -1.13385038681022    1.54776986589564   -0.64098158716876
O          -1.12705163601978    3.15921315042426    1.18893558185991
H          -0.83891819492597    3.17419368152502    2.09592468179555
O          -0.34700618989876   -2.59879380711495    1.96235803553558
H          -0.51827880570718   -2.18746265789225    2.81179970448718
O           0.18277497296914   -1.36516838895730   -1.73386978985688
H           0.24336201600704   -1.98053153080772   -2.46522952363485
O           2.56168301591214    1.60076269288687   -0.84769262527745
H           3.12601406079478    0.88149423472234   -0.55546737233648
H           1.89144386023990    1.70910218326861   -0.14437215738031
O           0.58786063713342    1.00892464538722   -2.59929749894205
H          -0.11985643662371    1.38930207147947   -2.04444213482921
H           1.41634011151407    1.29635133905027   -2.16398314554104
H           0.35084202123874   -0.44384514981767   -2.12649260733254
O           1.41775919445567   -1.05982993576093    0.75270327765748
H           0.44736216394805   -2.12974381729068    1.59408173973419
H           1.17696092949229   -1.21514552231266   -0.17377558026647
H           1.16728146742402   -0.13315572036077    0.94018084291288
N          -1.77483551551132   -1.33547378510226    0.13770709046914
H          -1.79301207551580   -0.40048710258006    0.65524911804302
H          -2.70703127776454   -1.60577562012127   -0.15560613881052
H          -1.12538008709155   -1.27123995620430   -0.68026053899801
H          -1.35053934081515   -2.01406968141757    0.83434494210526
