    26
        -50.44778572  Gyration_radius:  2.50289760979 Dipole_moment: 3.940
 S          -0.88422279780411   -1.10916337231639    1.39673083829599
O           0.39508930052391   -0.44486605007786    1.70475620805020
O          -1.97147878430812   -0.57126437159176    2.17249525456190
O          -1.10700563581922   -1.15785968159478   -0.03047676195270
O          -0.70708449882675   -2.61334423961466    1.87561009756152
H          -1.10920984487225   -2.60504555888423    2.73821770360269
O           0.66889333749131    1.59660245905150   -1.60407035036761
H           1.01506141775076    2.48707057971682   -1.67734007342553
O           2.24601248806628   -1.93435054901519   -1.59249223258863
H           2.90102445765181   -1.91724806858115   -2.29225142741115
O          -0.91869229850956    1.86783345905510    2.58125373388737
H          -1.47172878560972    1.06624193832865    2.60457803331495
H          -0.02152954770792    1.52995163449106    2.65452184754933
O           2.01548187483202    0.08712910371573   -0.06925393161472
H           1.33251620701062   -0.17247352876451    0.71272853454641
H           2.18860319731966   -0.77004793421511   -0.60979181830318
H           1.49336609833705    0.72494666000436   -0.69734736505736
O          -0.03457573134349   -1.05377464327697   -2.48099219613315
H           1.35877281027942   -1.76369936416328   -2.01926351394578
H          -0.55359706411404   -1.21634189996436   -1.67064501876698
H           0.09327586716779   -0.09701809164951   -2.50805192599840
N          -1.46427877834726    1.65227098256763   -0.20540881319727
H          -2.30959900103500    2.09372796174835   -0.54389625423696
H          -0.22913109122283    1.67013297339966   -1.06516932332289
H          -1.28498501737444    1.99722901080139    0.74147481131924
H          -1.64097821954074    0.65336060082180   -0.11591605636750
