    26
        -50.46862852  Gyration_radius:  2.47483502749 Dipole_moment: 4.022
 S           1.68011430500440    0.68994938546706    1.32157747902451
O           2.19503518970924    0.03507159516769    0.15031975138618
O           1.48447220713275    2.11929307816163    1.19499792705635
O           0.46480056189339    0.01842784707269    1.81301959121661
O           2.75551439736953    0.50969696789047    2.47642220854442
H           2.57372338193828    1.27134300623525    3.01683024725186
O          -2.52781608871392   -0.91540939623829   -0.47152582863523
H          -3.47644206729856   -1.03757174732575   -0.43162595341394
O           1.32598890907059   -1.73709918782501   -1.63921170330454
H           1.89869095244240   -1.12220758556474   -1.14350516325312
O          -0.02466858385968    2.26454112636750   -0.91048689556147
H           0.23914593137841    3.02604002163961   -1.42996847713495
H           0.60048468873731    2.22547258611608   -0.14551160866449
O          -1.78647070351411    1.16055636500630    0.90279926872941
H          -1.40406006411264    1.76585197461990    0.24935961124451
H          -2.32384684519781   -0.09344154492160    0.06615730744240
H          -1.01438654890571    0.81250106507707    1.39169137764750
O          -0.58480931163678   -0.02852019989421   -2.36683878952645
H          -0.33395625314013    0.79529257034878   -1.91466440072891
H           0.70837828766305   -1.14975830458380   -2.13462534022276
H          -1.36871781020153   -0.35342895342167   -1.90374469501835
N          -0.22694775307423   -2.08036775397344    0.39526497401653
H           0.43684415325677   -2.07149767895455   -0.47192925393161
H           0.09814940895902   -1.29181789173831    1.02482409216177
H          -1.18601473548840   -1.84572276861449    0.07554805156357
H          -0.20320562942421   -2.96719459609161    0.88482622210364
