    26
        -50.46862846  Gyration_radius:  2.47484361955 Dipole_moment: 4.017
 S          -1.03776175415205    1.63908305861381    1.13224401784457
O          -0.85628987747219    2.71382063277926    0.17868206043663
O          -1.97514132082481    0.62235859670635    0.74031460076225
O           0.25003515019011    1.04639102940003    1.53188947560322
O          -1.60801370575418    2.32871473876329    2.44445520207386
H          -1.21500478328146    3.19299148699617    2.38310196570633
O          -1.90067923594917   -1.96015911729771    0.08972370961722
H          -2.22480338783514   -1.06389235656880    0.29812154710916
O           2.13446778952132   -1.59329712238198   -0.59673243764657
H           3.02459814424295   -1.89760669611048   -0.77416160570533
O          -0.24306175619162    1.40759926117759   -1.97767342676202
H          -0.65393396758008    1.83839431165567   -2.72919658269866
H          -0.53721267958259    1.91108661571287   -1.17924301831062
O          -0.34690710159842   -1.36496760387791   -1.99166175082477
H           0.54219015144561   -1.58336094853823   -1.68135302075685
H          -1.49477547270310   -1.87132222443023   -0.80423020747038
H          -0.38293325022146   -0.39369613650081   -2.02700886437474
O           2.03224402726933    0.99931896362209   -0.47394329337930
H           1.45203649795587    1.25804400268027   -1.20619663654392
H           1.48930433861807    1.14142103058862    0.32682993632732
H           2.17443762066919   -0.59103647566849   -0.57941946415696
N           0.28948770550050   -1.57570010243455    1.40272074284625
H          -0.65043117951893   -1.85287936823493    0.92058443032411
H           1.06575800643521   -1.76946599121648    0.74164477591832
H           0.25050897382141   -0.52595072140599    1.54541998172759
H           0.42188106702872   -2.05588886401801    2.28508787233004
