    26
        -50.46862837  Gyration_radius:  2.47544616797 Dipole_moment: 4.012
 S           0.16682140946752    1.10558595701263   -1.94889211261346
O           0.42408162551765    2.42937319952078   -1.42052055940236
O           1.24788713712273    0.16869577969750   -1.80934834913155
O          -1.08975939800371    0.54675537907305   -1.42148615314551
O          -0.08452426933390    1.31194280488381   -3.50322749721554
H          -0.45159899328305    2.18955901614053   -3.51398250741166
O          -1.38153908087256   -1.12529443012714    2.06686835659968
H          -2.02431342073059   -1.27561448697465    2.76016288197699
O           1.73336796692295   -2.06698095246623   -0.44284666331404
H           1.82970215084110   -1.31441415847326   -1.05599230025671
O           1.11297172301776    1.91766412659197    1.02758209708809
H           1.80943463849742    2.52330261176992    1.28730529866353
H           0.91367666314610    2.11976081549720    0.08034650331461
O           1.43594570696540   -0.71637316483546    1.83532728910676
H           1.84212290613724   -1.66868020987850    0.45226920789708
H           1.40649205083467    0.21232052913620    1.54797345688529
H           0.53567827421949   -0.93396341057550    2.11212145234052
O          -1.56890108468080    1.28362915565096    1.11402567268469
H          -0.71692654443104    1.69713522259706    1.32173045493070
H          -1.53111850476469    1.12220232575928    0.15029764636163
H          -1.50640011094030   -0.17713304247225    1.76353254358798
N          -0.84319161874865   -1.89433464793311   -0.48623364878616
H          -1.37270707884600   -2.60650780631111   -0.97521712305805
H           0.22932517620937   -2.09930222144690   -0.49796305244315
H          -0.96895173052293   -0.94729432377421   -0.94561492464581
H          -1.14757559385489   -1.80203407807206    0.50178201996591
