    26
        -50.46600846  Gyration_radius:  2.57513154025 Dipole_moment: 5.939
 S           0.47352842954560    0.49069728937134   -0.27560620017651
O          -0.98425277744049    0.50060042766614   -0.46451941986995
O           0.93068410160576    1.73761119171960    0.33099609515365
O           0.89141164356839   -0.65911909391281    0.51533065655808
O           1.13148586597759    0.34357399720659   -1.66451651741635
O          -0.87288343979770   -1.50251871646700   -3.80870893920664
H          -0.01850975481047   -1.76376786134396   -4.15630730022834
H          -0.91263544299086   -1.84840527739585   -2.89235341562406
O           2.11196969693464   -0.52223857377619    2.83987996381701
H           1.69186392210852   -0.70140103598711    1.96464377999509
H           3.04867144963320   -0.42352191745664    2.66186824693641
O          -1.70808780145427    0.02468289168774    2.02475838696311
H          -1.51012539934294   -0.91299807583133    2.09019688100844
H          -1.58148799790597    0.24987676402093    1.07475355443372
O          -0.80568596042730   -2.06491667963514   -1.15570948089872
H           0.03660924684611   -2.11771392128370   -0.68993416299193
H          -1.13170466901279   -1.17777314439810   -0.92371593446538
O          -0.80261099200688    1.08693937347827   -3.13314354488615
H          -0.95867618273961    0.20572163911196   -3.54714382871459
H          -1.34618344883583    1.10402760783869   -2.33339069487119
H           0.47969974254787    0.73200741934684   -2.33705419257683
N           0.36488723981571    1.47116930607875    2.81729704254600
H           1.09901582718546    0.78127070183670    3.10643119521019
H           0.29289789378337    2.26815590608205    3.43940285789810
H           0.62742154661979    1.74616049052730    1.80791117970258
H          -0.54730273940556    0.95187931152798    2.70863377171844
