    26
        -50.46248917  Gyration_radius:  2.47960136466 Dipole_moment: 4.762
 S           1.23437805006031    1.14817016874905    1.07355800392961
O           1.83196391178200   -0.10589523017792    1.52907845880683
O           1.36800404606968    1.29204252692027   -0.37123256969948
O          -0.11585536834998    1.29890638613536    1.54748725846227
O           2.09521236856715    2.31352333808371    1.71028085600384
H           2.95612087140628    2.16010025122861    1.33448437626786
O          -2.05809938276885   -0.75931771677013   -0.29684423052393
H          -2.93673444209909   -1.12144584376833   -0.41545739326771
O           1.15061413763364   -3.01742806367091   -0.54348689697860
H           2.09022207570963   -2.90789676575227   -0.38464975061282
O          -0.47958740219622    2.39340481508649   -1.96960843155658
H          -0.43375008039823    1.80034141131994   -2.72280569522061
H           0.25729483915724    2.12919122251880   -1.38410471042267
O          -2.22842019921037    1.77698083273603   -0.00082834646898
H          -2.17912118341650    0.24274614531815   -0.18531806463943
H          -1.55387190557477    1.79342031512370    0.70497825849023
H          -1.77030383791347    2.15117955853091   -0.78096123036013
O           0.34703411540129   -0.79852367604815   -1.71620489676787
H           0.89333224768295   -2.27198711267375   -1.14759863432320
H          -0.57204941073646   -0.76362526253927   -1.40876850275493
H           0.80402270393396   -0.05696958063746   -1.27125644802116
N          -0.16133942084509   -1.74986088243371    1.36362757321684
H           0.29013964832717   -2.44748615903541    0.70387346414594
H          -0.95782747389644   -1.30041457087214    0.85506942962225
H          -0.47345633005463   -2.17459329914570    2.22980306871132
H           0.60207745172632   -1.02456282822024    1.54688503396854
