    26
        -50.46862840  Gyration_radius:  2.47480272665 Dipole_moment: 4.013
 S           0.37843082302633    0.77316429015502    2.07463732588342
O           0.67154188115183    2.15270113688360    1.74561863595471
O          -0.99693418697366    0.38455456366060    1.92177631891132
O           1.27328501240866   -0.15536746433723    1.36294676937563
O           0.74700670639546    0.61663740372410    3.61166533667458
H           1.44451206457519    1.25768838051123    3.69938604840381
O          -2.40625404814360   -1.24381761311909    0.35325045326674
H          -2.16081469543660   -0.61571350727536    1.05828031159459
O           0.71900686772198   -1.25390517568747   -2.31583139710587
H           1.21620691695890   -1.53972692702623   -3.08232924096890
O          -0.27522724571637    2.33105884555400   -0.66362178403433
H           0.03161657407947    2.29233343563820    0.27542374212436
H          -0.68356960060965    3.19145475089487   -0.77390093453216
O          -1.67455370611236    0.20219253430216   -1.76194465941527
H          -1.25675439336011    0.98496960533143   -1.36365166633406
H          -0.95317146663983   -0.31114836737312   -2.14995762352530
H          -2.37919515173815   -0.70643102927134   -0.47272862059479
O           1.91087604113388    0.70620493956035   -1.09718831257011
H           1.84882432648410    0.42849916466514   -0.16161206083592
H           1.23167126947780   -0.49203351309372   -1.91195031873913
H           1.29517313323187    1.45161687912994   -1.16770378639856
N           0.01443267691408   -2.12304118799040    0.16415092210939
H           0.22579021251662   -3.05244398165649    0.50799296246395
H          -1.04682435116272   -1.88204661728857    0.25590135464714
H           0.53439491589955   -1.38621477522995    0.72142678087186
H           0.29052942405405   -2.01118577063860   -0.83003655718206
