    26
        -50.46862811  Gyration_radius:  2.47491517138 Dipole_moment: 4.006
 S           1.82065757051771    0.75801342038799    1.07509796347914
O           2.16443102177850    0.30753870092065   -0.24596447945988
O           1.45280383076640    2.15516600546875    1.17555881319383
O           0.80357052458158   -0.11556753616128    1.68446670035352
O           3.11360235304269    0.59446001762200    1.98305677854479
H           2.96654600036662    1.27128317253353    2.63534294119043
O          -2.45710470299556   -1.18465122584245   -0.12329002326426
H          -3.35943715229251   -1.43694168180363    0.07304106794305
O           1.16119567390951   -1.35950316391262   -2.06601572165662
H           1.74931593480699   -0.73203327429617   -1.60538503409656
O          -0.44757666181255    2.32612174218930   -0.58265383830816
H           0.31557334362621    2.28747490084347    0.04470821934135
H          -0.37278264181375    3.16547023124182   -1.03993892778893
O          -1.69377081307429    0.80992739924960    1.35541256111462
H          -2.24330124290671   -0.40591652503485    0.47200998813045
H          -0.80782542491771    0.51597879039064    1.64687084279598
H          -1.51421549529091    1.52770669673336    0.72911781642187
O          -1.02912887760267    0.15187522144505   -2.20404974509776
H          -1.66814369149098   -0.32210209645697   -1.65498669092968
H          -0.78549154444424    0.94664280727557   -1.69902532619583
H           0.39858952662541   -0.80830839895097   -2.35995823653264
N           0.08189365076651   -2.12206069573576    0.15266092825041
H          -0.94091749210098   -1.98249566184483    0.04472352234004
H           0.55870982638541   -1.93241823731676   -0.81137255509921
H           0.43576759939740   -1.37008769428946    0.81080178096435
H           0.29703889415998   -3.04557290464564    0.50977063438175
