    26
        -50.46460303  Gyration_radius:  2.53561494711 Dipole_moment: 4.544
 S          -1.42230668343141   -1.39525554016106   -0.73378593976879
O          -0.38809185820994   -1.56879232130786   -1.73049577460577
O          -0.90171130434942   -1.64816334418762    0.61830244343790
O          -2.12337789661788   -0.13307252258682   -0.81385484200030
O          -2.49914266126943   -2.52567258137070   -1.00207443234538
H          -1.96371684841394   -3.26260728979368   -1.27817546598394
O           1.39953698852869    0.37464043464949   -1.75530065040577
H           0.80756865107473   -0.38430313721036   -1.95292808227115
O          -0.31291283793086    1.95868630669638    1.81404123507008
H          -0.39540127022492    2.60290449656781    2.51763079341562
O           3.67213553472321   -0.60970480622716   -0.28905800735101
H           4.45211372381591   -1.01007402300495   -0.67429559115090
H           3.14537136134003   -0.27122569057153   -1.02648112783295
O          -0.54222808032513    2.04875914968323   -1.05716501385579
H          -1.22153294359549    1.35099670806176   -1.09745793597144
H          -0.45725125210663    2.27258495997962   -0.12075862254211
H           0.80349351090295    1.15598735406127   -1.75406864539783
O          -2.32675450819835    0.28343774213784    1.78933662683417
H          -2.61914246501311    0.38048242362846    0.86636768478068
H          -1.87168899410730   -0.57445212125709    1.75768589906364
H          -1.12445693267926    1.37845602876115    1.86520071965276
N           1.18986566577403   -0.08436474372543    0.84184584118929
H           0.84844424014046    0.74516724632312    1.35877885926543
H           2.07471308397944   -0.44148400301186    1.19782209132145
H           0.42926585795154   -0.81726107796106    0.84024450317396
H           1.34720791831866    0.17433036177821   -0.18135655574656
