    26
        -50.46460267  Gyration_radius:  2.53513489544 Dipole_moment: 4.542
 S           0.52383834429170   -0.22748639167718    2.04319009336110
O          -0.55080645445621   -1.10030484370466    1.54722099229366
O           1.79280076837831   -0.56776284957565    1.43736984371871
O           0.17115238389631    1.17146430882381    1.94395094484670
O           0.66366979881897   -0.54743580009642    3.58847181921217
H           1.21252108158836   -1.32507618869438    3.59202612275820
O           1.99044570942814    0.16136985053607   -1.09279930373713
H           2.13853579243280   -0.11175356085605   -0.16060488150684
O          -2.14439415061258    1.20536371933948   -1.08744537484976
H          -2.94264122664587    1.56273657032327   -1.47726817506871
O           1.44847850599814   -2.20196090209635   -2.64202061662591
H           2.10992858990983   -2.79708816786215   -2.99610054377748
H           1.92776150397305   -1.44174544521766   -2.28380526668859
O          -2.40871952703133    0.81955610235552    1.49035470698245
H          -2.32535944380173    1.10923731575543   -0.10982161740173
H          -2.10235911349173   -0.09700150329566    1.58888367215978
H          -1.63778902031051    1.31659240733110    1.81607296296186
O           0.47317566427958    2.26454635432025   -0.51272135641824
H           0.43760564773600    2.03586779929252    0.43401303011021
H           1.67825022935053    1.09091622259440   -1.02885462940105
H          -0.42244671176243    2.12116984572430   -0.84666806023292
N          -0.43195972205909   -0.90294088460682   -1.06333653970196
H           0.52971820873079   -0.45561243809824   -1.17907724940299
H          -0.52135167370674   -1.13271633812615   -0.03612185571750
H          -1.16453399598272   -0.21553569936642   -1.31355283819735
H          -0.44552120895793   -1.73439948305377   -1.65135587973649
