    26
        -50.44778506  Gyration_radius:  2.50281729834 Dipole_moment: 3.949
 S          -0.84665655287129   -0.55546870075837   -1.71382402609792
O          -1.53713909969091    0.41980726930500   -0.85057402279440
O          -0.42265396376636    0.03222257402474   -2.95801708620992
O           0.18112979273391   -1.25591837707303   -0.97792337405269
O          -1.94505159026027   -1.63862338180106   -2.09244955501402
H          -2.25322276421139   -1.33462135475466   -2.94009621707086
O           1.33541175879164    0.85090356775675    1.74926867836475
H           1.57205974726921    1.67292138309002    2.18101841630284
O          -1.25632225991121   -1.93265644496990    2.45110509927367
H          -1.20859191912527   -2.08584207526328    3.39619762831383
O          -0.22996094293243    2.56696149739395   -2.08590906843202
H          -0.98723507909293    2.48249105833912   -1.49949504972570
H          -0.26575224554975    1.75957426701418   -2.62984346395031
O           1.12773574412207   -2.00066118092095    1.41285794792677
H           0.85873365458953   -1.90073461232600    0.48007735332534
H           1.50060617184665   -1.14447667515228    1.65848469439659
H          -0.35524401126778   -2.14533905700537    2.07530363351411
O          -1.16701223310681    0.45417816107219    1.58198981859631
H          -1.31882841089979   -0.49729105525244    1.94040478383088
H          -0.15172950323308    0.63998969928546    1.67497567260476
H          -1.36087981902546    0.42329142166406    0.52984327547197
N           1.79187720824641    1.07021144358312   -0.75144780235371
H           1.39065119144902    0.19382119754319   -1.08006206398321
H           2.73354763050406    1.14268761876159   -1.11481834800881
H           1.23230849415574    1.81683698761725   -1.17240003600691
H           1.58221899123811    0.96573474882543    0.73533310177903
