    26
        -50.46460297  Gyration_radius:  2.53555322544 Dipole_moment: 4.543
 S          -0.47397335232408   -2.05479342055397    0.24541563008122
O          -0.54284937497124   -1.96912759452888   -1.19718938292950
O           0.84457409483692   -1.62914255280399    0.73844140710131
O          -1.55076344834842   -1.38030191160001    0.93587753930769
O          -0.59817875582475   -3.59127475486110    0.61061078253653
H          -0.12918289242079   -4.01365168789669   -0.10186665883711
O          -0.69428913139020    0.50494734380611   -2.10773804776843
H          -0.72351901664205   -0.46715229199594   -1.96756127903015
O           0.04101338478943    1.97047955802926    1.82816904072962
H           0.13795921865373    2.65841743656740    2.48712029149396
O           1.97089135835962    1.21883862926207   -2.92700325657451
H           2.31273010949280    1.15985391029342   -3.81959601562823
H           1.02305038767705    1.03385111662546   -2.98392964838163
O          -2.08199080125351    1.12769546940426    0.07102582543474
H          -1.40770590552502    0.85692012213581   -1.53075509948822
H          -2.08001611024884    0.20728608811809    0.39158421373248
H          -1.51905422051537    1.61651385440759    0.68609311247920
O          -0.09779192124738   -0.40727068843194    2.91887703242197
H          -0.92509159109164   -0.72995231110091    2.52088427384841
H           0.56604804925361   -0.90024663825761    2.40867385833139
H          -0.02370318202247    1.10765864990393    2.32740384680344
N           1.21692754968870    0.75074763408622   -0.29480496167554
H           0.46011294784904    0.75469920855675   -1.04703290214068
H           1.22308003101759   -0.22774327452848    0.10285969446296
H           2.09376742947000    0.99059279068361   -0.75400721935880
H           0.95795514266608    1.41215529475909    0.45844791309909
