    26
        -50.46460313  Gyration_radius:  2.53594905411 Dipole_moment: 4.539
 S          -0.86994113915363    0.12865269062326    1.93365665375460
O           0.18537258266418   -0.88149579713343    1.76245387214623
O          -0.33101139686190    1.46713814760111    1.82745018801725
O          -2.00547164080888   -0.12810795633063    1.07614084573513
O          -1.38525795740736   -0.03119066418871    3.42322492073193
H          -0.74476568107246    0.46777395067054    3.91996289674398
O           0.31636915180585    2.16260719137841   -0.63632065606713
H           0.07085395745607    2.12417480229158    0.31431366385883
O          -0.37434211471019   -1.84508240212600   -1.91665006492888
H          -0.43676903812792   -2.54176857935452   -2.57056054325775
O           3.16172626952880    1.79327075268227   -0.85677071747922
H           2.30215490787782    2.23705615028563   -0.84771369738378
H           3.82215207866169    2.47866816678333   -0.75111959981217
O          -1.33993046346648   -2.59718347502013    0.39947210560956
H          -0.62114839098054   -2.34730371622726    1.00402061314193
H          -1.98230262317622   -1.88415781483574    0.55861336950031
H          -0.77928256371184   -2.20685418653785   -1.07819670963646
O          -1.71093347853887    0.67256379070692   -1.49113878969993
H          -0.49993247148952    1.89027274053904   -1.11088304418731
H          -1.37299758495764   -0.15263089156192   -1.86391054177257
H          -1.99279779208641    0.45259136784675   -0.58439337496950
N           1.33911593817263   -0.27455839626569   -0.51153684721836
H           0.91106600878498   -0.91294877673699   -1.20532690589862
H           1.01971675907767   -0.56210625562640    0.45321956004305
H           2.35337737099619   -0.22297676404126   -0.58786541689341
H           0.96497931154685    0.71359593458307   -0.66014178012060
