    26
        -50.46460285  Gyration_radius:  2.53546667945 Dipole_moment: 4.542
 S          -1.75308846841280   -0.78966316688207    0.89906070512474
O          -1.48360892910993   -1.84383211335160   -0.05452168415368
O          -0.60432825271268   -0.57752574216093    1.79238569934405
O          -2.21128652846006    0.44778209093817    0.30741373898660
O          -2.93048679019352   -1.30978846562472    1.82262196102977
H          -2.74301759037591   -2.24012485620074    1.89552527228224
O           0.21656344482018   -1.14960720093038   -1.95213915881810
H          -0.47604430743131   -1.56439031315990   -1.39202580923324
O           1.00619256670770    2.49036116900270    0.12277243378564
H           1.41334655416325    3.35047588707807    0.22897008275843
O           2.77046290704611   -2.21599627465905   -1.16148321852777
H           3.13837303192607   -3.05053469696555   -1.45343563314516
H           1.97163013299603   -2.07000348915299   -1.68725055164833
O          -0.87296557281785    2.07832096987403    1.90076598349383
H           0.29496581604072    2.42582969149957    0.82127457980883
H          -1.61377717635367    1.84361936275480    1.31497081031060
H          -0.62560547472580    1.20844834506791    2.25578427358797
O          -0.77282825669488    1.31272750711042   -1.81473493961128
H          -1.44127635559110    1.05697651592015   -1.15317268820946
H          -0.15206287817124    1.88644775620733   -1.34607254373060
H          -0.17181169862449   -0.28881978847318   -2.22412948518027
N           1.43492674471560   -0.19081907780024    0.19169597676016
H           1.02601411053281   -0.54154264662487   -0.72940280327519
H           0.71679759197419   -0.41967179977055    0.93163545345936
H           2.31339986035970   -0.68593493570568    0.33462484163747
H           1.54951550840274    0.83726528201056    0.14886668313734
