    26
        -50.46460296  Gyration_radius:  2.5353993943 Dipole_moment: 4.544
 S          -1.89643608222032   -0.37161732331009   -0.87814020769323
O          -1.26531049327127   -1.64817111298567   -1.13354664140202
O          -1.89590997029824   -0.05909665788783    0.55896654770604
O          -1.37383359592404    0.72144371287579   -1.66758905574634
O          -3.41870099455341   -0.53355463484523   -1.28582664622959
H          -3.60964266986798   -1.42971405276343   -1.02816599533536
O           1.10888224280937    2.33504322764932    0.73953634975099
H           1.47573816018230    3.15161997337841    1.07936736004287
O           1.36081138507515   -1.60881643396454   -0.86049689535983
H           0.42431818468787   -1.80464129696143   -1.08438088178309
O           1.90582397972536   -2.69036131241083    1.75033445691943
H           2.13054493896988   -3.60210985360494    1.93820850324246
H           1.90555388602177   -2.60119549399166    0.78704789625891
O          -1.45229784637041    2.55501882627986    0.23549657579107
H           0.14282620537979    2.51287811177760    0.55778045531623
H          -1.47029695728120    2.25884260981375   -0.69130084413410
H          -1.81344806417494    1.77756538574389    0.69270019146306
O           1.32494421934681    0.89555693997178   -1.74749238819328
H           1.57587980092952   -0.80757829504797   -1.38734885502865
H           0.36314279138390    0.87565128195606   -1.90380024608556
H           1.45377751314009    1.50387487060724   -1.00750838826373
N           0.60949042629486   -0.27573976980800    1.29782151922662
H          -0.43502331144227   -0.24558137859832    1.14351405191733
H           1.01255053815827   -0.80056193639851    0.46075008088789
H           0.97117727711431    0.69434770876812    1.30341190989039
H           0.86543843616119   -0.80310309625389    2.13066114685073
