    26
        -50.46460304  Gyration_radius:  2.53574993629 Dipole_moment: 4.549
 S          -1.32571606463366   -1.65615183008508    0.10001245294988
O          -1.00740308995942   -1.15911201868453   -1.24716062068422
O          -0.16269273047757   -2.24786723114820    0.72470696548845
O          -1.98873741010748   -0.65201602886754    0.90194483337806
O          -2.37034689722450   -2.82902648280907   -0.10629354496586
H          -1.81223167445534   -3.57078924881632   -0.31668366218811
O          -0.53713921367810    2.58480867805202   -0.50427466240045
H          -0.70898605980369    3.49059146467960   -0.76295010890144
O           1.64261804745383   -0.48356820079407    1.50072605704707
H           1.07285371605125   -1.27157118533684    1.35997794859262
O           3.66580306291284   -0.45154283232095   -0.54542062759598
H           4.48797094979541   -0.94206436078385   -0.52305743528016
H           3.25505619248407   -0.56538226717025    0.32302355565240
O          -0.35304005597659    1.19439893090471    2.01324447603005
H          -1.03087440166183    0.53367067722770    1.78103034692795
H           1.06498521649956    0.15404602316450    1.97558824959678
H          -0.39907544553509    1.86624454110379    1.31995002518115
O          -2.55358484924699    1.01221823857482   -1.07328577783229
H          -2.70849184816265    0.61020426943478   -0.20075615103829
H          -1.35696304959270    2.06380153118086   -0.73720816670277
H          -2.11330836002987    0.28551113247167   -1.54447369819741
N           1.05531311421115    0.42308452814539   -0.91491795221909
H           0.65722028666967    1.37842980700105   -0.88749904038350
H           0.29078339177531   -0.25328700347700   -1.18683007580234
H           1.87426085731663    0.34791280952124   -1.51568168873387
H           1.36172629538610    0.13745606885028    0.06628826213613
