    26
        -50.44689311  Gyration_radius:  2.47869678804 Dipole_moment: 5.479
 S          -0.52030397041019    1.75762400421356    0.80163720464801
O           0.80349637474799    1.63891227600600    0.14318340833719
O          -1.39201839149727    0.69056063027347    0.33789276807053
O          -0.42011491665091    1.89939465916378    2.21695229127122
O          -1.14302797407818    3.09670229304751    0.22155917201795
H          -1.45688787061277    2.85760739619563   -0.64618392571941
O           0.67497200796849   -2.20342088026967   -0.38157238626802
H           1.44167161297700   -2.77189110763021   -0.29563269669492
O          -0.91563177732677    0.08753348782615   -3.11015910372289
H          -0.91366438376584   -0.37052803160477   -3.95227433305322
O           2.15959076979964    0.91991586178968    2.39840228928111
H           1.95797220483951    1.26426388178846    1.51496405283567
H           1.54712188271202    1.39919359509981    2.96761365824965
O          -1.93326532089100   -1.39566327340317   -1.23368770846684
H          -1.21211094445145   -1.97899316171393   -0.96400973008597
H          -1.92753385107193   -0.67067436294033   -0.58056273204737
H          -1.45557863291006   -0.46948894841941   -2.47778889816688
O           1.14887339570349   -0.04346088411545   -1.61632066937306
H           1.01670735136461    0.71143873691323   -0.86370625003233
H           0.98723321201158   -0.94926809496507   -1.13104110056291
H           0.37595627404650    0.07476343511246   -2.27720574703701
N           0.22745480029785   -1.10487428845648    1.87490622363223
H           0.48664008242800   -1.81272152966494    0.57757303250070
H          -0.10847502652107   -1.63692099659607    2.66753230248790
H           1.05126808525853   -0.57447555458582    2.17502766682700
H          -0.48034498403759   -0.41552913334299    1.63290122114785
