    26
        -50.45792430  Gyration_radius:  2.59324310408 Dipole_moment: 3.556
 S           0.42752993979477    0.79078888340714   -2.06850994856551
O          -0.16063033318321    2.00999815553558   -2.57198090218320
O           1.58479547946055    1.02270699198841   -1.20833996134787
O          -0.51327160656061   -0.11956141410327   -1.44337502457580
O           0.97886631058407    0.00679296422394   -3.34357465024561
H           1.37142791202550    0.70257433570567   -3.86161274611050
O          -0.40544282426935   -2.35338325220023    0.08215893747964
H          -0.38549860142331   -1.92426374814767   -0.78878891519919
O          -0.62100102365182    1.59312599611226    1.97526454716605
H          -0.47032781721567    2.33372617982022    2.56387385382763
O           1.95959270959284   -2.81096216497485    1.64630302264928
H           1.16378294206046   -2.96183677508397    1.11685926943387
H           2.37213138850739   -3.66631946929765    1.76942066250797
O          -2.25068082320251   -0.45003522253792    0.66260718683615
H          -1.80437872300532   -0.19576242817087   -0.16299370688175
H          -1.25083368750468   -2.04884183625000    0.46192888180967
H          -1.94344443868315    0.17168841195762    1.33079781831206
O          -1.43277461334782    2.53338803402051   -0.35020751429582
H          -0.91392368816188    2.43452521160787   -1.18028671893658
H          -2.30768060560785    2.19372758988211   -0.55431678790499
H          -0.87598271986870    1.98679337649028    1.10206620276478
N           1.11097945922586   -0.24759125662305    0.98680550916699
H           0.50278135773420   -1.04386845016593    0.68639168528176
H           0.55176103342789    0.42005829239916    1.55229233432400
H           1.89779175240468   -0.64256711863726    1.49907744026615
H           1.41443124087190    0.26509870303083    0.09813950452006
