    26
        -50.45792429  Gyration_radius:  2.59325265228 Dipole_moment: 3.559
 S          -1.09929280847895   -1.71629918123722    0.96560890067717
O          -1.03191196655588   -0.59344639176677    1.89709762804289
O          -2.45069786193015   -2.07548180846630    0.60437700602526
O          -0.20731914441021   -1.51446442217346   -0.16055929802276
O          -0.50226437422540   -2.97165361599767    1.74805839561401
H          -1.22928814759147   -3.23508311362217    2.30360239942302
O           2.26389655546436   -0.49349110579196   -0.58208244131238
H           1.68783075618063   -1.23140533498263   -0.32369771050187
O          -1.26713788588001    2.07395145027080   -0.95934643605893
H          -1.86473238555502    2.82042465218059   -0.90163633178394
O           3.27549399677358    1.42394134597793    1.30238407064201
H           3.23233189625638    0.71304585877990    0.64728090140234
H           4.18112694081306    1.45549841611952    1.61193448164935
O          -2.70550354972878   -0.12970409770712   -1.12124236473376
H          -2.69956179686076   -0.82723471378507   -0.42740490683149
H          -1.84107197496586    1.26588792780286   -0.96885236344479
H          -2.51443049801221   -0.58673564584083   -1.94409743707880
O           0.29477204184818    0.04373280008977   -2.37057152932870
H           1.93685580768901   -0.25507801389502   -1.46968209563262
H          -0.05157974361802   -0.59325793645038   -1.72273249172581
H          -0.15368615115253    0.87614431873452   -2.18783683424299
N           0.55296150889572    1.13524182388098    0.82163284610301
H          -0.06117519646456    1.68840070869689    0.19314294552100
H           1.12468993074340    1.71589827780604    1.43273825337122
H          -0.07406322299187    0.45960997774588    1.36482271918713
H           1.20375727376403    0.55155784359246    0.24706169306027
