    26
        -50.47166899  Gyration_radius:  2.41845550781 Dipole_moment: 3.985
 S           0.75821277707974   -0.50737584157705   -0.17141088408714
O           2.08135095966851    0.22411331047700    0.21489469905150
O           0.47396599297912   -1.37352562540216    0.97349817014403
O          -0.26251567025969    0.53997805350158   -0.30230750248791
O           0.94518501263441   -1.23612824276436   -1.40189542047837
O          -1.53136619856350   -2.45061859875428   -0.47611307315197
H          -0.76101330533033   -2.27228202221272    0.08730584222263
H          -1.17659836871298   -2.48446633119449   -1.36776961638730
O           0.26766143938517    1.89320570660366    1.89608056322341
H           0.06099180193495    1.56251693183569    0.99493272885534
H           1.21949247049305    1.79887427941553    1.97987472208815
O           0.43941443154721    0.80537607666044   -2.99278323358324
H          -0.20361795772588    1.22534455563520   -2.41258582361653
H           0.57840265514480   -0.07842459515218   -2.59370978306086
O          -2.74351487603368   -0.19214403041317    0.42531977336706
H          -2.00408418810091    0.27714908184299   -0.00532485786299
H          -2.64969434350693   -1.10501594753850    0.09273901075956
O           2.77848182566081    1.43461584540907   -1.95767739631256
H           3.42271377856476    0.89793486636873   -2.42469449788151
H           1.93051308727311    1.34618642215238   -2.46540779538325
H           2.40584617318716    0.72748863011797   -0.58897954315146
N          -1.22533480038808   -0.20966155051873    2.54775239554858
H          -2.03267752611144   -0.17758376677518    1.84323553208760
H          -0.49700735522030   -0.81057934171774    2.05741294648623
H          -0.78066935001730    0.73573196188637    2.59180194210596
H          -1.49413847559885   -0.57070982782705    3.45581111154804
