    26
        -50.45792430  Gyration_radius:  2.59318993686 Dipole_moment: 3.558
 S          -1.31626031253142    1.05899889628588    1.49399475056682
O          -2.06910370290135   -0.01851042223822    0.85744080701054
O          -1.16964069038629    0.88510996532137    2.92019855424311
O          -0.07604415878981    1.31746414169914    0.78712794524253
O          -2.18901725485178    2.37959696342675    1.29700218488845
H          -2.85698349261936    2.28953954123759    1.96952970704943
O           1.08104610371207   -2.31975385324804    0.52682903206681
H           1.05678635109299   -3.24332300640360    0.78001376126254
O           0.77054392360728    1.39170260691405   -1.78281925723993
H           0.34645521741481    1.81908698121055   -1.02086480241312
O          -0.69825199001181   -0.11911547418537   -3.73485092978011
H          -0.89198382496045    0.18378942861309   -4.62242548791007
H          -0.15745389341848    0.56809501967016   -3.32053404365726
O           2.37195047725682    0.26957007964537    0.09939697046499
H           2.25469055962109   -0.68411818422458    0.16389479229436
H           1.63787255293379    1.11703021546163   -1.43082100780095
H           1.60581641585381    0.66322808765967    0.55050801915146
O           0.76626406425313   -0.85594556361269    2.69688892378860
H           0.91115586388509   -1.80538410904568    1.35689864898037
H           1.53475624280046   -0.29510014592992    2.82864266776055
H          -0.01175462130891   -0.27160662286845    2.84261847668850
N          -0.58584659700124   -0.88835529682878   -1.06620108487450
H          -0.02498754075614   -0.05069142532736   -1.34551065164643
H          -1.03919776111268   -1.24439786307207   -1.90597845349946
H           0.03647174471423   -1.58551776055473   -0.61353906357686
H          -1.28728368650647   -0.56139220968217   -0.32744045894613
