    26
        -50.46210373  Gyration_radius:  2.43388622056 Dipole_moment: 8.040
 S          -0.44365035154526    1.58376008267527    1.15655494050600
O          -0.26511250401280    1.09495010933576   -0.20267267241101
O          -0.62641509156295    0.42392603870356    2.06070091814708
O           0.62195050431537    2.45352996231091    1.57623662103112
O          -1.78060672962949    2.39802166948077    1.19104236148685
H          -2.44599121042942    1.74953824438633    0.90079611015067
O          -1.55263908009397   -1.89178185263904   -1.07635637798967
H          -2.01610678454429   -2.51379989745654   -1.63798930655091
O           2.42217789611061   -0.66742701331565   -0.61617731179233
H           3.33256716228125   -0.90396515837307   -0.43113999658237
O          -2.89959973756615   -0.01088953563609    0.69860351102853
H          -2.56711105949611   -0.54121966423508   -0.03891273155860
H          -2.21996011155794   -0.06824102667194    1.38862545466690
O           2.42012771143981    1.91575870573708   -0.26478971144456
H           1.98884229643529    2.31327706092467   -1.02493779049737
H           1.83743213895320    2.14956021354177    0.49573240604053
H           2.37729053665858    0.32618717900141   -0.48634896801422
O           0.13578527800550   -0.35266034585814   -2.34991827059442
H          -0.06216221597549    0.34426052101108   -1.69231354460017
H           1.03530647851611   -0.62526183613806   -2.13350298135488
H          -0.99590679888408   -1.31834166064241   -1.67326400551438
N           0.35160154238076   -1.60072928959328    0.83721615936388
H          -0.39789205662033   -1.87627584118847    0.17147408800476
H           1.18330486912151   -1.26682664734122    0.29018228030317
H          -0.02675503419646   -0.75090343052899    1.40172825791366
H           0.59352237191027   -2.36444659750561    1.45943058026607
