    26
        -50.46160663  Gyration_radius:  2.43164759546 Dipole_moment: 8.001
 S           0.49435897916735    0.87716155320177    1.61339893903774
O          -0.57409991057498    1.33890654012700    0.72740682686210
O           1.34134934890663   -0.11252364469098    0.92318755979162
O           1.26095842686900    1.92371395903751    2.21254439305370
O          -0.22828977124481    0.06960590183218    2.76000868344918
H          -0.73934432360568   -0.63024120953002    2.31119579074353
O          -1.68582624607562   -1.81750353386549    1.40578858573193
H          -2.41230844970612   -2.07547604377921    1.97515672242852
O          -0.46690794266590   -0.63481881741587   -2.47487522987917
H          -0.38789999594684   -0.67147123197807   -3.42851707962285
O           2.65674525171499    2.33786950838066   -0.07217482506023
H           2.26183456820096    2.08619572440484    0.78230043921515
H           2.76875067481720    3.29052552653744   -0.03392053705189
O          -2.39987587950899   -0.15084573949066   -0.43108286554582
H          -2.07437702506502   -1.20248726987031    0.71124214494446
H          -1.85848484545544    0.55446690125781   -0.01140756445434
H          -1.96928385611955   -0.31799026168724   -1.28142808032518
O           0.56083102222493    1.57780516092395   -1.63632907238089
H           1.47636743443953    1.72645885856578   -1.33699855218405
H          -0.02774507734146    0.22845013669524   -2.19515382612837
H           0.05244890974957    1.63217930734328   -0.80061573984824
N           0.38691042042082   -2.04726097184314   -0.36364533999576
H           0.84261659827576   -1.18768155614577    0.19475111890813
H           0.05482664762870   -1.65636364562485   -1.27241543246912
H           1.06849217014046   -2.78515237563497   -0.49556864192612
H          -0.40204712924561   -2.35352276675034    0.21715157270610
