    26
        -50.46600837  Gyration_radius:  2.57498353826 Dipole_moment: 5.939
 S           0.45010721538403    0.12628782208992    0.56825394297199
O           0.84910637122631    0.04529552691324   -0.84412332587404
O          -0.98950123482787   -0.04109072121816    0.71644154579485
O           1.17634193473864   -0.85121036736289    1.37365423226146
O           0.79241998142074    1.54278459015949    1.07803288726694
O          -0.50528501881329   -2.11379356917095   -1.51455497732314
H          -1.39496352774070   -1.75563820544191   -1.56818745701377
H           0.08096397325278   -1.33250051867372   -1.39056598008900
O          -2.14771678211762   -1.97547834594007    2.06811146514035
H          -2.18045182977604   -1.69835557339990    2.98517185601075
H          -1.83117350715951   -1.18827966546122    1.56324149920528
O           0.54033356756130    3.88310922191108   -1.46596928496003
H          -0.15534900203193    3.19649576935750   -1.53989359225670
H           0.28651069391919    4.44317517096214   -0.73046025208437
O          -1.12726458088591    1.74496806265453   -1.38943423366419
H          -1.55436730743291    1.48964168504672   -0.56378732763760
H          -0.38491599052067    1.11932405416129   -1.45706636945736
O           2.49275169617915    2.22986642327939   -0.67907203393745
H           1.93646420970359    2.93524521510328   -1.08580108917179
H           1.56352430279078    1.87667068580605    0.51059813260234
H           2.27289781667673    1.41425077115817   -1.14991718141611
N          -0.02773276671116   -3.06686802473124    0.91044174521368
H           0.41060015110040   -3.96321047742689    1.08900000727699
H           0.59994794425316   -2.23038186282779    1.17409261600328
H          -0.24089856880896   -2.91068064398319   -0.11119774003648
H          -0.91234973136674   -2.91962699296996    1.45299092517333
