    26
        -50.46160662  Gyration_radius:  2.43163775037 Dipole_moment: 8.001
 S          -0.04923458346540    1.74861051969120    0.74621909831422
O          -0.33892500604252    1.45110632810142   -0.65640868865492
O           0.61573969689630    0.59980022990218    1.38756761560497
O           0.65717921764337    2.97244832986294    0.95864626857596
O          -1.45538146248618    1.85557792215946    1.45358849069466
H          -1.90392870945937    1.00559765167027    1.28406465045496
O          -2.66176829679380   -0.53567055442862    0.86549119141732
H          -3.60823919633474   -0.39623338360946    0.92254912002381
O           0.56006690903304   -2.13212571340585   -1.37344868913941
H           1.05837712636286   -2.78264201972019   -1.86893770079777
O           3.00567535675168    1.85970560694701    0.19312757763073
H           2.19671780132878    2.21052690126699    0.60776817671319
H           3.41104582634576    2.60637673195583   -0.25377802888462
O          -1.79699550514500   -0.53413064680469   -1.56631375287140
H          -1.30825578568094    0.30252396180712   -1.39950202645919
H          -1.10727540013128   -1.19467639105683   -1.72259216377834
H          -2.43622342142298   -0.55323933633192   -0.11454196314683
O           1.77377080922260    0.13945696211488   -1.52157410856613
H           2.42795459394134    0.50051092264154   -0.89579996229662
H           1.08689403211145   -1.27493846675102   -1.43676429570712
H           0.98845050617136    0.70127203689999   -1.35585354400685
N          -0.23093612348239   -1.75410502501849    1.15894284824165
H          -1.25029887884881   -1.64680194509496    1.21344049382410
H           0.06248798681981   -2.07784741714727    0.21131617445209
H           0.17719983124948   -0.71523258719833    1.27106342907982
H           0.12590266541547   -2.35587061845343    1.89172979928228
