    26
        -50.45792377  Gyration_radius:  2.59371995142 Dipole_moment: 3.553
 S          -1.38686981761556    1.14694469392534   -1.36082681664386
O          -0.76672718562605    0.05590554992491   -2.10793864081561
O          -2.82431395370133    1.03400568853589   -1.27674899484196
O          -0.72260616790309    1.35119704914972   -0.08740555345938
O          -1.09588675262203    2.47307839795221   -2.19812009969908
H          -1.74265579310335    2.42472792431544   -2.89519915252003
O          -0.67650162022030   -2.30725786229982    1.01390353035312
H          -0.96853262950693   -3.21808727734456    0.96153801688749
O           1.81015125311195    1.29539099624049    0.87116123206628
H           1.09045701060021    1.76799473020722    0.42236418841715
O           3.75426073233209   -0.28443104709871   -0.53332413363825
H           4.66468798647935   -0.02399485095658   -0.67605030775294
H           3.34810897732322    0.41287404864538    0.00070089821354
O          -2.76579292371593   -0.74485347960932    0.63639552885632
H          -2.85033296121506   -0.14217209076643   -0.13675248340827
H          -1.47550214549379   -1.75359215806326    0.81976723455665
H          -2.90626331378897   -0.19086265146418    1.40830551018643
O          -0.18908403689561    0.23763547039470    2.36878529329530
H          -0.29053071936046   -0.71022911658561    2.23201541560604
H           1.40517099478530    1.02171128309142    1.71560939176156
H          -0.58895530542897    0.66296910853806    1.59110804799467
N           1.04923341596551   -0.92457253444916   -0.55950902600231
H           0.53824299087849   -1.60925033886357    0.03079010629102
H           1.89119604094365   -1.31245672811887   -0.98156563120826
H           0.35767036614258   -0.55320393667845   -1.28642490555930
H           1.34137557788963   -0.10947089853023    0.02742134101840
