    26
        -50.46160667  Gyration_radius:  2.43159096278 Dipole_moment: 8.002
 S           1.33521955934401    0.95499611040020    0.95995093700299
O          -0.11280039052811    1.17834230672051    1.12299568352686
O           1.59784280699025    0.18530869114724   -0.25592111957108
O           2.08664402489610    2.16556412988985    1.06876523945174
O           1.74090838046806    0.00761674812530    2.15449182419294
H           1.20964008459236   -0.80343326448636    2.04337191766999
O          -1.67552491408471   -0.86949666376213   -1.78366315314297
H          -2.28490953642938   -0.87903456001155   -2.52224116119603
O           0.25893350429103   -2.25812276983340    1.71915870425269
H           0.71590835349239   -2.98175550903927    2.15047751340824
O           0.46359924295745    3.44179784525735   -0.68517409112313
H           0.94941958325872    3.02953530550844    0.05200313973925
H           1.10271587056885    3.99849681515174   -1.13592426340082
O          -0.08355143475416    1.14407532148541   -2.04090956026014
H          -1.09812374240488   -0.05335063483977   -1.91347534202552
H          -0.19455155681526    2.03561474421563   -1.66309447477218
H           0.65308659038359    0.77785091083950   -1.50886683028308
O           0.66214116350625   -2.20007929728049   -0.82941762371126
H           1.16741980919325   -1.36161428915766   -0.73771221075234
H           0.45094280049069   -2.34726053006368    0.73587779143268
H          -0.12853699377033   -1.95685464153549   -1.33155891573869
N          -1.80210551761568   -0.66551533761772    0.88539533529301
H          -1.34585993685292   -1.46633350795682    1.33717202782191
H          -2.68147313438951   -0.43054042664567    1.33026983537094
H          -1.07260739069747    0.18052095191783    0.98752537202002
H          -1.91437724609044   -0.82632844842909   -0.13949658520618
