    26
        -50.46160666  Gyration_radius:  2.43160044699 Dipole_moment: 8.002
 S           1.42855041202187   -0.18543233065190    1.24149022981619
O           1.61518309274195   -0.05125708834001   -0.20312133447869
O           0.02427148569567   -0.51183625403271    1.54922146347151
O           2.34510816365710   -1.07881468957753    1.87688378441697
O           1.65205536818628    1.26056932956498    1.83155823059291
H           1.01177650549307    1.83708134554126    1.37322537673746
O          -0.13044551336892    2.81248174317561    0.44101272485649
H           0.20142981690614    3.71133218570210    0.46177142334181
O          -1.72569678581466   -0.32647904996137   -1.91322797244365
H          -2.30559790764722   -0.75440760700108   -2.54375661402151
O           0.98430215507454   -3.25034497358591    0.99822144683066
H           1.71230877813623   -3.85510175663424    0.83756154611235
H           1.38023801675588   -2.47390756010395    1.43388348097411
O           0.35978996565785    1.61839602169974   -1.79395703013503
H          -0.36998229435212    1.05594107474666   -2.08982674282956
H           0.07844855924559    2.45406120041417   -0.47525996462047
H           0.97904778152993    1.00511513437456   -1.33882938030090
O           0.15141449467559   -1.96969517541915   -1.25644363318232
H           0.15977563593014   -2.58320525865693   -0.49919450708499
H          -1.03111490490875   -1.01437009779352   -1.66687295812535
H           0.80877773834165   -1.29394376147333   -0.98987436516083
N          -1.90796741701806    0.73639443430565    0.54003635234646
H          -1.06627790316801    0.15379501474549    0.99887478483529
H          -1.58875313801338    1.71192961568728    0.54252385776369
H          -2.00907962147392    0.37681296810536   -0.43431288679120
H          -2.75756247428460    0.61488553516909    1.07841265707886
