    26
        -50.47166902  Gyration_radius:  2.4183826744 Dipole_moment: 3.984
 S          -0.24885564944719    0.51419031519252   -0.73251086665065
O           0.16994594778906   -0.12213250727189   -2.09431471998248
O          -1.55531758592209    1.11274838559995   -0.85496856723762
O          -0.23432013981167   -0.57828398955888    0.24843983105477
O           0.80608688137857    1.48719726131626   -0.44602329046171
O          -2.90303170983180   -1.10495249532707   -0.38639452721362
H          -2.26178523835186   -1.48368042285995    0.22334598051691
H          -2.60418268724925   -0.17906985658335   -0.50115573018378
O           2.07713986612297   -1.66733405341507   -0.39666682890644
H           2.11971222306857   -1.52973953926288   -1.34602823579498
H           1.15303620071920   -1.44298297027682   -0.15193094326000
O           0.49097788809158    0.13491905834871    2.73537751424853
H           0.06015533390005    1.00945527533387    2.68819464045990
H           0.08902820018460   -0.34997393231475    1.98983298823838
O          -0.68457133968594    2.32679809815593    1.64112470417396
H          -0.13043654537537    2.23861529739550    0.84872088288730
H          -1.58579023199079    2.27820162609023    1.31303476614792
O          -1.88233212351627   -1.53448532313600   -2.77637370841099
H          -2.36898539044488   -1.53172624118671   -1.91160073131092
H          -2.42458650005693   -1.02864505728403   -3.38567581553675
H          -0.58550419263804   -0.69755524724509   -2.41530107351186
N           2.54932947486918    0.43724969241871    1.16017436316484
H           3.42175153789339    0.88397990002282    1.41792546981267
H           1.87846735103645    0.29964642867757    1.98503991034801
H           1.97462248815146    1.00841431657589    0.47069724784202
H           2.67944593106271   -0.48085400948188    0.67703673950234
