    26
        -50.46160663  Gyration_radius:  2.43163644608 Dipole_moment: 8.001
 S          -0.16922956903080    0.42516139584661    1.84593961520087
O           1.08810067992072    0.50236580991134    1.10232285869422
O          -1.16834048845646   -0.34744319951896    1.08556024110749
O          -0.03452099400628   -0.03760605139058    3.19116079230407
O          -0.73017688473122    1.89934388897178    1.87983625548709
H          -0.80535552286133    2.17700666951391    0.94729482241231
O           0.61912005492542   -1.05981286792857   -2.28893598669326
H           0.86262638686244   -1.71229594906397   -2.94619438139610
O          -0.83889611230492    2.61369871763151   -0.76541239076110
H          -0.79767951144726    3.57051596730952   -0.80158336921159
O           0.22042765762978   -2.61016278943705    2.38089313164189
H           0.85208246257900   -2.93150035574760    3.02843896999748
H          -0.02084768071915   -1.71264689505505    2.67358840860619
O           1.38977148107069   -1.88377911035671    0.03102520560234
H           0.91316247436317   -1.43901223581046   -1.40231696277594
H           1.44851478063350   -1.00174200970936    0.45339699429456
H           0.86967639356974   -2.39401906763835    0.67838309449653
O           1.42388517582281    1.49564042082277   -1.30509362254241
H           1.49522960244695    1.17604328457038   -0.37802291891209
H           1.33110815382305    0.69169995615768   -1.83569863053255
H           0.07428608393471    2.28049791160327   -1.02371378179987
N          -1.62686504739645    0.06092187137664   -1.35022296817048
H          -1.43706563858551   -0.15184417875116   -0.26527315147834
H          -0.84228486087389   -0.38657782804219   -1.87277424634838
H          -2.52766776637148   -0.30790437339638   -1.63121747098547
H          -1.58906131079668    1.08345101813199   -1.43138051823714
