    26
        -50.46210368  Gyration_radius:  2.43385897555 Dipole_moment: 8.039
 S           1.10957032228517    1.63278865289754   -0.38108100386411
O           0.93334960638014    0.20926891720516   -0.62790625985531
O          -0.15632354873962    2.18405534414377    0.15723279591284
O           2.24078393601167    1.91238656724317    0.46169436408438
O           1.34993849680955    2.32333223822095   -1.76566727446541
H           0.55135116756795    2.09385558866713   -2.27274891422496
O          -2.14937537372116   -1.00258514129195   -1.23376327974125
H          -2.80691572198565   -1.53484326219100   -1.68266122422512
O           0.38699612157183   -1.52586320998411    2.05267633096507
H           0.48262992462729   -1.71846163102851    2.98695411794538
O          -1.19882785469199    1.56406594779239   -2.23874676171016
H          -1.44863314642092    0.64124086110177   -2.09120878787554
H          -1.10147722959749    1.95261915006405   -1.35505453967541
O           2.69771551002994   -0.48280811438399    1.44483083364938
H           3.01521599367759   -0.91941288930269    0.65086216354521
H           2.57948646241490    0.45822552843768    1.17455085549644
H           1.26002610939974   -1.11502619437822    1.77852318165034
O           0.08176165917756   -2.26727723188884   -0.72021449185896
H          -1.32658081867626   -1.56106481161310   -1.15415255090199
H           0.54645507132465   -1.41338844052412   -0.83077623273454
H           0.13575159981607   -2.43828040690691    0.22748722498812
N          -1.45973092598503    0.19454259664067    1.10370860382815
H          -0.90833000814201    1.06530492547979    0.75479577464252
H          -1.89178391730080   -0.24264034518330    0.26523285515570
H          -0.76104471052943   -0.47480548345158    1.51147594374485
H          -2.16200873530942    0.46477086422975    1.78395627553821
