    26
        -50.46160663  Gyration_radius:  2.43163731919 Dipole_moment: 8.001
 S           0.16005718667830    1.63537884393698    0.95748839286562
O          -1.00959767332425    0.74240800298252    1.04577567730613
O           0.98416087360528    1.28202589814208   -0.19827500128151
O          -0.20442801311785    3.01539374325160    1.02556224732640
O           1.03693720378334    1.28854169834024    2.22233703002994
H           1.26499300381054    0.34349609866094    2.13704829466842
O           1.68438003477511   -1.35127138915134    1.85961006324130
H           2.49013223076403   -1.51478431812511    2.35208633065311
O          -0.39681621731949   -1.83153164520760   -1.79830534855396
H          -0.75690525536814   -2.28715497975097   -2.55972127480475
O          -2.11607772501615    2.70150772949470   -0.86829630509770
H          -2.04528695182543    3.54351873714558   -1.32391007032674
H          -1.53744329824836    2.77667215576323   -0.08794692282509
O          -0.73587474047855    0.70713414260171   -2.10703789680009
H          -1.48317921337235    1.24537474567382   -1.78806248926757
H          -0.00311190707273    0.99357195233006   -1.52321923512350
H          -0.57907242107314   -0.85197980013786   -1.95191419173912
O           2.10387807500732   -1.04603346705978   -0.66871269041952
H           1.83967909583960   -0.10108757180424   -0.60569749153701
H           1.95185757403273   -1.28388767086064    0.89237342541387
H           1.42044904772413   -1.45622049322595   -1.21746511888341
N          -0.82359587603292   -1.75471156170268    0.84622372139889
H          -1.63040811894800   -2.22534419123028    1.23864270061965
H          -0.93992045650991   -0.64204717457488    0.92889992283185
H           0.03594284733001   -1.97153997701284    1.36367764494927
H          -0.71074931564423   -1.95742952847983   -0.17116142464425
