    26
        -50.46210367  Gyration_radius:  2.43386809156 Dipole_moment: 8.040
 S           1.32597755979372   -0.99993278507810    1.13348861273522
O           0.23128815366508   -0.67211798002241    2.07707721016332
O           0.88829939288942   -0.68726746623399   -0.21894703688305
O           2.56634541892911   -0.35788460983837    1.47600403297860
O           1.54036804267878   -2.54901857618861    1.21142028336706
H           0.66801167677125   -2.90890016528756    0.97265539150540
O           0.32608740592371    2.46369419200050   -0.71782712565737
H           0.48037813932887    3.39866790720218   -0.57245857192927
O          -2.39998644735187   -0.70209571037878   -0.94568100695859
H          -3.17958245888851   -0.89751311173149   -1.46643669579323
O          -1.13432064316239   -2.62678949969262    0.84168048948400
H          -1.52068275767525   -2.13549166558547    0.10336784308685
H          -0.88498741899015   -1.95762441166560    1.49850908799103
O          -0.37455549553031    0.18381931574131   -2.34342182964611
H          -0.25600708529911    1.12415149293908   -2.16444019033196
H           0.21428073089577   -0.25362787934458   -1.69594915578357
H          -1.67960817051245   -0.44218784046455   -1.58501287203875
O           2.70765083203752    1.44091592490483   -0.43632229351407
H           2.72375393351260    0.83996005238986    0.34543534877950
H           2.86601798292971    0.86063377656662   -1.18462814624290
H           1.22430609173819    2.02979459721054   -0.61262045474687
N          -1.28847435907265    0.99144106667162    0.86227191596713
H          -0.63546829582866    0.32440922566208    1.42142670190512
H          -1.86362030210708    1.54013640792458    1.49243074384233
H          -0.67588519333928    1.60056860702229    0.26552420667925
H          -1.86958674333626    0.39225911527523    0.24245350103997
