    26
        -50.46210369  Gyration_radius:  2.43392104863 Dipole_moment: 8.041
 S           1.14120916260104    1.62154042910471    0.33303323607716
O           2.07855824818355    0.48743749940936    0.50996178217994
O          -0.10423406448998    1.11735140679098   -0.22644800963076
O           0.94053177510576    2.37124131283027    1.54373699890812
O           1.78203066718129    2.57497433668382   -0.73095794633643
H           1.88833489131762    2.00210023412414   -1.51069758441198
O          -1.68527397624521   -0.92366832711414    1.73158941180158
H          -1.95667008989538   -1.25706261348483    2.58850879254341
O          -0.07982524082503   -1.71313305121487   -2.05104301596968
H          -0.31008530232925   -2.28149557869086   -2.78666781325198
O           2.02584560746546    0.30098846167017   -2.16859526549721
H           2.29772273638532    0.17024122176590   -1.24645731310450
H           1.24863656599568   -0.26132141838833   -2.29297455633257
O          -2.09444180527961   -0.36390201855918   -1.07017429252240
H          -1.46151160439224    0.34993493003983   -0.85304732200646
H          -0.90179983429115   -1.20261601873576   -1.80824619737214
H          -2.33111216530843   -0.73175096666495   -0.21054263964639
O          -1.51338163620419    1.64454739029993    2.14558011774364
H          -1.98550552262421    2.08687931361383    1.43616076865737
H          -1.60217753350191    0.06890504552119    1.85024464629259
H          -0.57851193818179    1.93907504750675    2.03669745143050
N           0.64105952001911   -1.62993709984800    0.56531081978042
H           1.27314135104354   -0.74473798277566    0.59494282454687
H           1.10479037245499   -2.41562345845138    1.00871359530093
H          -0.25918318837684   -1.38716174682761    1.04808127296448
H           0.44185300419168   -1.82280631860933   -0.43670979214374
