    26
        -50.45376533  Gyration_radius:  2.46041105449 Dipole_moment: 4.244
 S           0.75724635502750    1.46025386039250    1.10890897536070
O           1.96738349814325    0.77436156502538    0.43875114748679
O          -0.44589677746581    0.93585614458402    0.51903019571475
O           0.84439922210547    1.34318319811684    2.52648123188480
O           0.92397376582445    2.94071348604994    0.70269230227486
H           0.89160067225033    2.90832850862639   -0.29011524589423
O          -0.56236774378531   -2.42147656182959    0.39492651362249
H          -0.36424918520266   -3.34072387176516    0.57953850708440
O          -0.56079340735578    0.29371721823697   -2.67481762409487
H          -0.96274234370981    0.30022095346142   -3.54440716938678
O           0.99316616032040    2.37067101445846   -1.82922026400835
H           1.84467388064243    1.92701101499158   -1.86612742872384
H           0.32759063186721    1.70459370685192   -2.09809944870492
O          -2.22165928553549   -0.52082902172041   -0.82504007655133
H          -1.27420448716397    0.02304828851168   -2.02949295933533
H          -1.86482703372179   -1.36912205466993   -0.52354944720645
H          -1.82757967795772    0.12298192972118   -0.21321920197385
O           1.21303621519716   -1.06763396572754   -1.10141159567280
H           0.66017133002663   -0.62994273447616   -1.77375139765111
H           1.67778423184172   -0.00074903624164   -0.18485538722889
H           0.58857003626395   -1.60178891784430   -0.56087540703845
N          -0.50988410429380   -1.21105782746720    2.75613696143489
H          -0.54713924020986   -1.94156930351346    1.27761547187053
H          -0.06248983276256   -1.68950776589709    3.52958414787156
H          -0.02946152080999   -0.31938271550353    2.63745843437324
H          -1.45630134952599   -0.99115712236241    3.04385877448153
