    26
        -50.46160664  Gyration_radius:  2.43163552948 Dipole_moment: 8.002
 S          -1.47100886676868   -0.02570333157850    1.20528848206033
O          -1.42112380606741   -0.79488576812276   -0.03798238112395
O          -0.42228673944836    1.01040544732010    1.20993475144113
O          -2.75937030083413    0.50477436316425    1.52246139878083
O          -1.05410883962933   -1.03593768881749    2.34312967365432
H          -0.17472529922224   -1.37455329608998    2.08930360709056
O           1.38114777373701   -1.98253509878522    1.51086414660137
H           1.50722524718094   -2.83863057679936    1.92282372656777
O           1.56325620070900    0.30042926302852   -2.05242118889694
H           1.93871608928506    0.65780424036117   -2.85763854936906
O          -2.48599076008858    2.50349293541521   -0.28586948084520
H          -3.39077938190423    2.57645401376690   -0.59825123427108
H          -2.51674400367757    1.87964818217689    0.46197197474856
O          -0.92091782838979    0.98246951335632   -1.91502360469444
H          -1.21054113363490    0.24854501089882   -1.33424906760488
H          -1.29381858251521    1.76478532754444   -1.46913563423591
H           0.60640765699373    0.61708006902577   -2.03061823696166
O           0.62725236076448   -2.16071437861753   -0.95110749689749
H           1.03634407490392   -1.49402293988176   -1.52087136342440
H           1.12644377953997   -2.16267970518393    0.55465576961326
H          -0.25047412459602   -1.78451316609151   -0.71710086637543
N           1.96266753426513    0.52536331129655    0.58800693934513
H           2.59588167654714    1.23273218144994    0.94173484887981
H           2.13738149336787   -0.39254910497189    1.01286221403101
H           0.90361092449733    0.77508930456667    0.86085400575361
H           1.98555485498418    0.46765189156700   -0.45362244386757
