    26
        -50.44778562  Gyration_radius:  2.50281096779 Dipole_moment: 3.939
 S          -0.20609341499166    0.13448696056641   -1.97460262292289
O           0.80106207639955    0.78998774681354   -2.76787253337064
O           0.28780486370360   -1.12307079647628   -1.38516129898029
O          -0.83670882060403    0.95998201829766   -0.96977077864718
O          -1.35157775718946   -0.29357106354421   -2.98819034591645
H          -0.89374302664179   -0.31378764275022   -3.82242227675582
O          -2.80194560764133   -1.39000753559778    1.24125408214359
H          -3.21173677406988   -1.66951878896593    2.06150174414879
O           0.58231923644084    0.16965321741615    2.28037894018115
H           1.27285618683212   -0.07379903528025    2.89847111818664
O           2.94262193387292   -0.23898041420304   -1.51106329256698
H           2.34389067908338    0.21490429099595   -2.13123721015221
H           2.51943741003927   -1.08974793062295   -1.36436830405154
O          -2.01315817383404    1.08165319983214    1.43169610996379
H          -2.68249679733795   -0.39965722426502    1.29760245378923
H          -1.20532590535507    1.01649116927634    1.95667090026069
H          -1.70788925801250    1.18405943951806    0.51039338991378
O          -0.31086342116762   -1.77328716328696    0.91129216226091
H          -1.33378921591289   -1.72456328997510    0.99934993030987
H          -0.07449282788984   -1.51566983594500   -0.10031427997228
H           0.06701472550663   -1.00308363914208    1.49272817926953
N           1.62512437317609    1.46910030619737    0.34797774960812
H           1.04329567095169    0.74073825318797    1.52962545734722
H           0.81624520595127    1.54881730374266   -0.26550321591708
H           2.01463957425890    2.39380641687712    0.47928378248779
H           2.31350903443109    0.90506400733351   -0.15771984062003
