    26
        -50.46210373  Gyration_radius:  2.43387944644 Dipole_moment: 8.040
 S          -0.55045241098567    0.18952979666130    1.92455833542478
O           0.44440544033564    0.52332777028033    0.91601160714711
O          -1.79130426438080   -0.24986941557142    1.24388037278478
O          -0.06939771990426   -0.77239293102094    2.87923505834891
O          -0.90012811391807    1.50779955685304    2.69369172117051
H          -1.21689781072325    2.10105122498300    1.98997503704263
O           1.37731614521902   -2.00220521188614   -0.88679745886163
H           1.56562406559448   -2.93042396630110   -1.03499943161653
O          -0.55834796072628    1.48536142024630   -2.15167960162142
H          -0.55305653832795    2.02129527959320   -2.94533024541257
O          -1.91694357351927    2.26409118029672    0.30797152259354
H          -2.17597670645947    1.35682199051634    0.53400639547763
H          -1.36536349040914    2.18786179846166   -0.48303349947739
O           1.82146370870963    0.82080922188514   -1.29358530573010
H           1.45838222321496    0.84311460141090   -0.38528818326490
H           1.96583785566664   -0.11797334059279   -1.46132018428119
H           0.39300432741513    1.35409678614203   -1.88185292698546
O           2.04946385093864   -1.67411265561018    1.61060071103230
H           1.25313328104497   -1.44122151588776    2.14370504613559
H           1.61955571189252   -1.83479764637517    0.07207447998540
H           2.60618533225419   -0.89359762177108    1.66260500957854
N          -1.10111046572712   -0.96486529115696   -1.11514802839043
H          -1.01732570084324   -0.06762964525004   -1.63362576349387
H          -1.41678610773992   -0.71501372213348   -0.10422300375750
H          -1.77096158737595   -1.58618783096047   -1.55583188008708
H          -0.15031950124540   -1.40486984281241   -1.04559977374787
