    26
        -50.46210364  Gyration_radius:  2.43384830027 Dipole_moment: 8.039
 S           1.93051428690373    0.47543029302536    0.29943973710982
O           1.34723812901121    1.71192430992281   -0.27238195450219
O           0.85135153484145   -0.44731647260737    0.61933068965085
O           2.92849794267091   -0.11403537889599   -0.55180854941177
O           2.61647415573026    0.88125237485506    1.64719500926272
H           1.88773667083278    1.27032430539005    2.16210279163933
O          -0.80557660907535   -1.47351171325891   -1.96733711318826
H          -0.89480463695091   -1.71970446638815   -2.88957592444060
O          -2.22425072805733    0.75729051557144    1.27548318096480
H          -3.05389951531303    0.82526425149956    1.74897988259697
O           0.23592620932911    2.05525388852292    2.14805992077610
H           0.54083538754049    2.23989119862930    1.24567998964397
H          -0.57402584584837    1.53587326362599    2.04798209497880
O          -1.43998174197599   -1.69947444825919    0.83940274996411
H          -1.99324287477186   -0.21210906223313    1.22919613976202
H          -1.54580876914900   -1.90189441691370   -0.09768391656620
H          -0.51857962295582   -1.37725965622350    0.90646820278798
O           1.62525201228068   -2.23127760325028   -1.40694776462684
H           1.59283582320128   -2.73478449816750   -0.59011439002742
H           0.12536603435351   -1.74567500164186   -1.71175310190809
H           2.17874856857478   -1.44535253597652   -1.18665701448105
N          -0.98449688521203    1.07963081485342   -1.11860018546884
H          -1.57107199043526    1.08258042202521   -0.26024558539438
H           0.01983370555771    1.36642153578105   -0.81353465785853
H          -0.93067028799898    0.09804126085166   -1.48739930987539
H          -1.34420095309706    1.72321680925070   -1.81528092140506
