    26
        -50.46160663  Gyration_radius:  2.43162862597 Dipole_moment: 8.002
 S          -1.88749057012908    0.23251995654863   -0.01432171017893
O          -1.11834520942989   -0.27038375132336   -1.15242947621776
O          -0.99029540489847    0.85366173744904    0.97689771630825
O          -2.97922003605919    1.08437398384260   -0.36702598656568
O          -2.46613603171812   -1.04828612807129    0.70244032480207
H          -1.69317981361285   -1.60124993729290    0.92417751109482
O          -0.24045583179612   -2.56412612437533    1.22000773309828
H          -0.52966621518461   -3.47491780621326    1.29295384541026
O           2.55436288289892    0.14757705897158   -0.44642162669270
H           3.41175515486754    0.50490785189398   -0.67925854506527
O          -1.32273181917569    3.18168718318415   -0.81081189151202
H          -1.76998719234400    3.59926937511405   -1.55052577311535
H          -1.92204355988287    2.47598818357709   -0.50712257001505
O           0.72283910406343    1.56056921873837   -1.58839172673894
H           1.87630721871482    0.74763407111796   -0.88971320870190
H           0.03097631611146    0.86698210453163   -1.59833884438806
H           0.24953238189024    2.32606443010868   -1.21434961099734
O           0.82443148410464   -2.03498460948742   -1.07073014791240
H           1.58838178651038   -1.44462552432578   -1.00498910969167
H           0.18704360323331   -2.47396248615061    0.31405070497593
H           0.07060949057535   -1.44407517250474   -1.29271801265814
N           1.11597390906885   -0.25592406826374    1.77841748992406
H           1.43400874416376    0.13071797847572    2.65920955292186
H           0.84627605112755   -1.24225718805788    1.86781677458212
H           0.18716964031554    0.26924459136221    1.43211086581110
H           1.81988390658567   -0.12640491885007    1.01906573152288
