    26
        -50.46210367  Gyration_radius:  2.43386355714 Dipole_moment: 8.040
 S           1.81938810052796   -0.80476741463626    0.29104045299668
O           2.09345107778342    0.64444514978888    0.14671825026671
O           0.38149083971268   -1.00104821022092    0.40199997216801
O           2.40529201059740   -1.58918113743193   -0.76228761342879
O           2.46062726030939   -1.25252755926626    1.64751313173877
H           2.02126709393138   -0.68230020672694    2.30274209214734
O          -1.26556036964040   -0.14100894561194   -2.25160877009599
H          -1.37328413665817   -0.02473736997966   -3.19712029639609
O          -1.54814586166834    1.48922818570998    1.59137491618276
H          -2.24528669029762    1.87912152169069    2.11972170950224
O           1.10249543591079    0.86423842943045    2.63308212658227
H           0.15774475212536    0.94592153029374    2.44200374237915
H           1.55649111340221    1.08677617335551    1.80498887487443
O          -2.22601370084657   -0.74025887376197    0.40362448180740
H          -2.32123793760246   -0.57664100472806   -0.54213651590176
H          -1.29593329111388   -1.02869750353770    0.49874171127198
H          -1.89423400056499    0.61884020360914    1.24799450058246
O           0.24663440509109   -2.25967240436291   -2.10504142137881
H          -0.68074862612020   -0.94976575253270   -2.15141130477388
H           1.11610631408285   -2.02338410144978   -1.70409417628124
H          -0.15210230113614   -2.85935137612916   -1.47000859732729
N          -0.08253305692097    1.70656279600651   -0.68388922782101
H           0.05837856492788    2.60384911943805   -1.13552958801556
H          -0.65865765187214    1.80085063469317    0.17638463023656
H          -0.54502849398878    1.01661867027487   -1.32616876994075
H           0.86939916002922    1.27688942608312   -0.37863429137482
