    26
        -50.46210368  Gyration_radius:  2.43386283248 Dipole_moment: 8.039
 S           0.66877098970242   -1.83453706228255    0.47927351853988
O           0.64588881313241   -1.84313266184246   -1.00247017783634
O           0.44049996285319   -0.47415388944102    0.94363727988514
O          -0.25159713682142   -2.77758415428152    1.05518605591341
O           2.11798947839697   -2.24114874082820    0.91070917907346
H           2.67647459465158   -1.56672330102298    0.48553154831099
O          -2.48509844916690    0.69336530304141    0.18699045716758
H          -3.42506367160030    0.61376393466988    0.01599232932023
O           1.25037943175211    2.11848120289196   -1.04677619777751
H           1.61983604466234    2.97634641680594   -1.25828732707247
O           2.84618211937098   -0.31260561711470   -0.83487476154508
H           2.15288397971974   -0.88268893996854   -1.20326008747311
H           2.44739613478724    0.56531673610663   -0.75752409227647
O          -2.07678620653671   -1.13690436016666    1.99813624098711
H          -1.47895721846901   -1.83473729032829    1.64007901244212
H          -1.57295814734123   -0.73557026734205    2.71014009872890
H          -2.28443651157432   -0.00298942864116    0.88049905613198
O          -0.14456701730999    2.07057587706487    1.16519869430415
H           0.80427982294419    2.20378648015627   -0.15854004544231
H          -1.08015711408711    1.98848561385651    0.94558328976254
H           0.14963057849133    1.14522819535951    1.28550275645494
N          -0.61955855924929    0.26577949553589   -1.71241441288991
H          -0.12115002824358   -0.66256126988084   -1.44081863601021
H          -0.99272524929989    0.20929642675383   -2.65396181691890
H          -1.37622425140286    0.43291813874447   -1.00391065979796
H           0.08906760064449    1.02199315215344   -1.62962131198280
