    26
        -50.46473011  Gyration_radius:  2.388158247 Dipole_moment: 4.339
 S          -1.59625454701811    0.55617598600789   -0.22087615025995
O          -0.60242067455132    1.41123374515023   -0.86792669768366
O          -0.96226223978690   -0.42263856537560    0.65524029443419
O          -2.57184945499022    1.33512289558307    0.53251103203326
O          -2.35093900366208   -0.22283219464424   -1.33787490476396
H          -1.68348921639997   -0.84353363239623   -1.73081395820319
O          -0.43961749971404   -1.70616303896927   -2.39460847762420
H          -0.64191380243922   -1.84411446941245   -3.32173174572437
O           2.48927056487200   -0.45599810348180    0.31273659164500
H           3.33670797738653   -0.79653804128775    0.60097483033430
O           1.02477256721667    1.72574519166833    1.16624596200669
H           0.48757440843195    1.77617199106635    0.34264152076337
H           1.60491597646406    0.95505665677417    1.01414509899116
O           1.33581866486011    0.17198253418536   -2.16327478991258
H           0.65733485709809    0.78098155721606   -1.80209784456754
H           1.93017535517006    0.00034542532088   -1.41550508243587
H           0.30111744989601   -1.02823990969801   -2.36869263536614
O           0.70319442838170   -2.38189850472117    0.14985411179468
H           0.47266889027950   -2.57711699735707   -0.76549115301511
H           1.86192212927103   -1.22847515456791    0.29835089024689
H           0.01088262684116   -1.74547808559887    0.43311961066801
N          -1.07936000467421    1.32189515980346    2.62437657414000
H          -1.81289125708441    1.41505981016010    1.82923874351952
H          -0.12693226178202    1.50095471393204    2.11992149990476
H          -1.24935600555807    1.95664914239243    3.39836050920436
H          -1.09906994850875    0.34565188825049    2.91117614987083
