    26
        -50.46210369  Gyration_radius:  2.43389969811 Dipole_moment: 8.041
 S          -0.93345920618102   -1.15144307655762    1.35852112450949
O          -2.03228463256026   -0.67060647325724    0.48817799587689
O           0.33861588666215   -0.80163405685112    0.74384504882619
O          -1.04490313204563   -0.67338049290525    2.71023874744794
O          -1.02872502564871   -2.71414269580085    1.38399911440317
H          -0.94900302600783   -2.95929116041328    0.44536924244184
O           0.51352755602145   -0.39228312653603   -2.59427908292708
H           0.89199362361404   -0.48966053606575   -3.46861339774284
O           0.84511525237757    2.39048073365788    0.51303641640830
H           0.75880580406956    3.29873599253072    0.80756632193079
O          -1.10622024891053   -2.44458678062948   -1.30275214560374
H          -0.42493959063574   -1.91615507020594   -1.74132408501095
H          -1.68975422109178   -1.80573799330402   -0.86376121288313
O           0.92545999741459    1.06659765087693    2.75748221521419
H           0.87461702236928    1.84350855841915    1.35334800524417
H           0.13675833267762    0.47872625067949    2.82755236603376
H           1.66923979304197    0.46114086211162    2.71264576036966
O           2.25444954849694    0.20278770146273   -0.73514385952465
H           1.27108218447484   -0.23725785305301   -1.96397774516873
H           2.12974011865768    1.12154900425817   -0.46940715920394
H           1.69844746800443   -0.30017408017889   -0.10648676652142
N          -1.02792855604909    1.16299842607563   -0.98893365316192
H          -0.31823826812587    1.67889534853826   -0.41219896891448
H          -1.49454758436180    0.42293633332777   -0.34196324149284
H          -1.72496426803521    1.79028256922409   -1.37573115703413
H          -0.53288483822755    0.63771395460267   -1.73720988351538
