    26
        -50.45364260  Gyration_radius:  2.46003332435 Dipole_moment: 5.017
 S          -0.85936837844757    1.82374738244710    0.65449480906320
O           0.36358200885073    1.09359812549434    0.88985265897343
O          -1.74905672998827    0.97182166809213   -0.28716163734075
O          -1.60664445350656    2.18420866256705    1.80478383023169
O          -0.54473264816653    3.08529399068218   -0.17634429026258
H          -0.07491153750852    2.77207288658935   -0.99713620226524
O          -0.16543937778014   -2.50687238657590    0.72559695028665
H          -0.51528916127215   -3.38952872498065    0.85280018370282
O           2.04869221094283   -0.21149377808577   -1.85467316108524
H           2.86870367434168   -0.38130838835547   -2.31930816402719
O           0.48257965982430    1.96049899279774   -2.27187796812253
H          -0.25148504371666    1.50140065291589   -2.68863426729816
H           1.15598891252356    1.27856558054106   -2.07185509542485
O          -0.55922555388119   -0.95558750319913   -1.45090600768369
H           0.35109049573488   -0.73812760552100   -1.71708215049024
H          -0.46204021907828   -1.60617785462647   -0.72427337221333
H          -1.25174216936751    0.21515484502357   -0.76365752063764
O           2.14586994620784   -0.90240221700045    0.65381565817722
H           1.51404442409242   -1.63254447431237    0.73781291346343
H           2.20349836979418   -0.45575809753520   -0.89682408737180
H           1.64824424045884   -0.11416682053028    0.92898460444664
N          -1.42583728673739   -0.76536241962445    2.28605181369673
H          -2.31256915754770   -0.47422511235447    1.89052243562399
H          -0.64718608076143   -1.90640916053705    1.36538307234156
H          -0.79535148379809    0.01830555405818    2.14422592485885
H          -1.56141464122349   -0.86470376796426    3.28540905935554
