    26
        -50.46463424  Gyration_radius:  2.47177148519 Dipole_moment: 4.143
 S          -1.44014163614575   -0.09026284299339    1.21749729416220
O          -1.00028918120453   -0.88737108632625    2.33500049029471
O          -0.77754555211281    1.22423924073825    1.16515327539878
O          -1.38365267170518   -0.72941470795948   -0.07354675492265
O          -2.97683012794538    0.22554125611576    1.49725458753819
H          -3.05888620178880    0.01179372888162    2.42079810337808
O          -1.58222821448208    0.18323810953566   -2.71229324316021
H          -2.18314916922282   -0.01101227415774   -1.98302446860195
O           2.08640787470009   -0.57473534284080   -1.08058751504019
H           3.04423154659590   -0.56512601013381   -1.10284903320900
O           1.51345991514410    1.35489776092785    2.51995466309090
H           1.31641022453355    1.25810188073607    3.45320256812261
H           0.64640939819739    1.41489052037933    2.06753583252069
O          -0.11782758086424   -1.96545521599988   -2.17063324731452
H           0.78469427183877   -1.67275846837651   -1.98746440786392
H          -0.58761338648128   -1.84967480538739   -1.32995716558290
H          -1.06956282075462   -0.65534954048499   -2.80727834964054
O           1.49372205066495   -1.10353005266509    1.38750193617796
H           1.75960091682786   -0.27414070222401    1.83212732294907
H           0.57968460418781   -1.24926282440382    1.68903554098219
H           1.83738339742036   -0.86365430919775   -0.15512378500224
N           0.23662465662431    1.38961800298565   -1.24569626767000
H          -0.18655454735799    1.38660842928980   -0.27387485534034
H          -0.50585029554498    0.99635947716331   -1.91217552100965
H           0.53052684992590    2.32360900657872   -1.51024724755403
H           1.04097568896647    0.72285074993836   -1.24030972265579
