    26
        -50.46210373  Gyration_radius:  2.43388954246 Dipole_moment: 8.040
 S           1.52219741783664    0.62867559199951   -1.15348381168325
O           1.04623399204850    0.41671303576195    0.20550076831886
O           0.67313593235325   -0.15215990150774   -2.08379701494079
O           1.59501566146977    2.02167610123806   -1.50331599222541
O           2.96454639523560    0.02629062731772   -1.24528904475113
H           2.83422127600710   -0.90672384355736   -1.00033121344349
O          -0.60377814874476   -2.41949212510450    0.96417484894447
H          -0.82617286159586   -3.18761027410435    1.49109151968716
O          -1.94861892503656    1.53615174424646    0.73162176903156
H          -2.67695538777525    2.14337780962436    0.59095996693136
O           1.67723382075520   -2.31544417401643   -0.84937661740424
H           1.22017486281481   -1.76380943443563   -1.50368847846455
H           1.06608731472068   -2.39525172864679   -0.10381928242134
O           0.13921900951586    3.06604272090051    0.42074420644204
H           0.65620649702585    2.77098431566163   -0.36555161101795
H          -1.11961132603427    2.08869905821875    0.61507144589602
H           0.72772248583522    2.91083760750282    1.16333583233184
O          -0.32272065346128   -0.21776731044515    2.34800664341783
H          -1.07448049288362    0.36112855678236    2.17473504919576
H          -0.45437909002666   -1.66398468643362    1.59818577823804
H           0.34602232608083    0.06436293611778    1.69187142211385
N          -1.51811678885240   -0.61042785726635   -0.84240962433461
H          -1.72493787056579    0.22968960925626   -0.24752678935312
H          -2.28987413731907   -0.83022976923572   -1.46290866700173
H          -0.61812270530354   -0.38944539403052   -1.41267743955479
H          -1.29024861410436   -1.41228320584421   -0.22112367395352
