    26
        -50.46463401  Gyration_radius:  2.47201059891 Dipole_moment: 4.134
 S          -0.75077889649812   -1.59203000524883   -0.68381397607369
O          -0.44652662888828   -1.63056922173922   -2.09224328961629
O           0.43994714934682   -1.80035815845075    0.15782036406505
O          -1.48725157006995   -0.43882826983773   -0.22955818055123
O          -1.68174496153316   -2.85685205348358   -0.41394308116812
H          -1.54584958172323   -3.37518598730200   -1.20034163080354
O          -2.06242273152071    0.64489979650853    2.28673963941702
H          -2.38306851986445   -0.08147401903926    1.73878654771675
O           0.94825277799483    2.22501396299756    0.02109297688671
H           1.68882396855522    2.81825358260179   -0.11166024417764
O           2.75565683539676   -1.31916039169153   -1.06997369885757
H           1.95751336197410   -1.59275796334163   -0.57182447528613
H           2.87291540121703   -1.97552825905696   -1.75898265228416
O          -1.87218302748338    2.24675047311365    0.17697277988719
H          -1.88879314729171    1.37876728796308   -0.25569917184332
H          -2.13878519990510    1.42601487639768    1.68739967801722
H          -0.95325111679944    2.53697818349837    0.10521122307133
O           1.05653913342164    0.58112616599346   -1.98084169809375
H           1.85271549751412    0.05831976783458   -1.75947652343610
H           0.37216219624578   -0.09126287328431   -2.14582765300732
H           0.92070712334847    1.63666352632906   -0.78827963909155
N           0.49001738856485    0.24155173265138    1.79988021645889
H          -0.52287826916680    0.39993582262497    2.11480934696128
H           1.12065717449111    0.12748488337484    2.58600773590206
H           0.49185070410460   -0.62143802266522    1.18441122856891
H           0.76577494844503    1.05368515306169    1.20333418706548
