    26
        -50.46463433  Gyration_radius:  2.47181697994 Dipole_moment: 4.147
 S           1.26103201662307    0.37147083403953    1.35564318492017
O           2.53491983355535    0.55931461905950    0.70789535051291
O           0.32254942912863    1.47474469512929    1.08760968471916
O           0.61777578262011   -0.89799382590325    1.12514077650568
O           1.56179623146215    0.44710877436210    2.91868833735782
H           2.42697199326554    0.84278055138135    2.93584238113435
O          -1.96145915123718   -1.88825359641954    1.57478334904415
H          -1.16879229977182   -1.71400451883677    2.09633825952479
O          -0.86955877532453   -0.64813311057172   -2.16191229731627
H          -1.05992251756238   -0.44702321442903   -3.07914814370338
O           0.90449513547870    2.91382573660873   -1.07832365976441
H           1.72785044127150    3.37847788896616   -0.91846419371437
H           0.66675666471189    2.48885084437819   -0.22804130255514
O          -0.51383632899905   -2.85298243819095   -0.43225961776430
H          -0.70138926715380   -2.32138888153134   -1.21715055291952
H           0.15922924501199   -2.34767642608199    0.04988232447361
H          -1.62671182098797   -2.46736422369345    0.84837002122234
O           1.48452398354249    0.35531218391249   -1.74553796672045
H           1.96757054507289    0.23273040071341   -0.90929658327266
H           0.07185000553515   -0.34597358874766   -2.00546106246511
H           1.29288682516587    1.31395066175506   -1.76919086296474
N          -1.84465009633857    0.32714117806164    0.16318011209159
H          -1.58419116182605    0.00344339900404   -0.79541793134574
H          -2.00459788119663   -0.54449244102488    0.76720190228651
H          -1.00630869560118    0.83448002885693    0.56729889195262
H          -2.65879012647427    0.93165446919825    0.14232959878835
