    26
        -50.44778611  Gyration_radius:  2.50285115111 Dipole_moment: 3.929
 S           0.62222178680765   -1.36354198882763   -1.30888698840227
O          -0.36372213228449   -1.74610155493673   -0.28223211883057
O           0.06392008154729   -1.40627618825201   -2.63552459728383
O           1.27944311819118   -0.12613013205288   -0.95394775935393
O           1.73785973365387   -2.49350089694787   -1.26765822697615
H           1.47931549168885   -3.06617602143802   -1.98259095036607
O          -0.93052204261302    1.82536832360246    1.17122087255205
H          -1.77011370129732    2.16953541452286    1.47908370875685
O           1.88632638887690   -0.28872163906275    2.77170576302837
H           2.01224005243279    0.08173287646146    3.64680194385941
O          -2.49977522341812   -1.00369473884708   -1.93470143852239
H          -1.67563341527314   -1.19867002178648   -2.41609048820460
H          -2.41826036616397   -1.51404826979113   -1.12395225807055
O           1.93357343439343    1.60061239554426    0.98417555528941
H           1.06292430499830    2.00918442314409    1.07058428945077
H           2.09068286846452    0.43659114531394    2.11563376359136
H           1.86626468336919    1.02677292121334    0.19762554843448
O          -0.47602038286617   -0.57089255644559    1.87692687504390
H           0.46763374494742   -0.56343823282142    2.28452368620351
H          -0.68579613125671    0.40938906487097    1.61381692765189
H          -0.41068719538608   -1.11058290411626    0.95508611720395
N          -1.08549087718869    1.39502026828777   -1.33881249757281
H          -1.80749214910603    0.70358321745975   -1.55889343259095
H          -1.16672913808281    2.15394168499562   -2.00327034412538
H          -1.02062338771996    1.70794792929325    0.13173271407941
H          -0.19153953673232    0.93209544061728   -1.49235665484314
