    26
        -50.46463437  Gyration_radius:  2.47157345223 Dipole_moment: 4.142
 S           0.99246816108499   -0.39763718966443    1.55515817297875
O           1.60116649878085    0.63668467285292    0.70106305707359
O           0.27387594554456    0.16064115060504    2.67296102616729
O           0.26591567890068   -1.34664421135526    0.74898594023340
O           2.21921295891927   -1.19227953376550    2.19014884224482
H           2.24667471699788   -0.84299608451676    3.07478207463663
O          -1.88374789816900    0.62999481095513   -1.38120212955768
H          -2.46557201380605    1.30007346657563   -1.74243453261676
O           0.70328270989919   -2.51009792989515   -1.75906511767497
H           1.02840111458896   -2.62644101331420   -0.85823847539025
O           0.50437018486858    3.05198160451252    0.95581968772527
H           0.68792928346549    3.37304468890607    1.84041750491719
H           1.01364137431898    2.22026794321737    0.86133111095361
O          -1.78117533742698   -2.15031624849958   -0.89161796735365
H          -1.27908437200783   -1.97348001467798   -0.08079782100007
H          -2.07762357459488   -1.27996714011262   -1.18894338588877
H          -0.27606771101791   -2.57791311844165   -1.65247149453538
O          -1.56235049156411    1.31019133854371    1.10022475032325
H          -1.01451755362485    2.11534976207402    1.01115959816806
H          -1.81717697988022    0.82498793368134   -0.40170426012974
H          -1.07167656728581    0.76147079129833    1.73711450768098
N           0.74884200757886    0.11881119591967   -1.72229035038996
H          -0.26010016620463    0.38974308113970   -1.71118705485082
H           0.79710286948440   -0.94641274969490   -1.83675496319233
H           1.25560225170815    0.60461938614659   -2.45432753671519
H           1.15060692948951    0.34632339743427   -0.76813120401570
