    26
        -50.46463397  Gyration_radius:  2.47200027689 Dipole_moment: 4.133
 S           0.75534858128444    1.38429819842904    1.03834840942256
O           0.78282867412677    2.56461246235252    0.21136059540769
O          -0.61055238345599    1.00678214453085    1.43997841290176
O           1.45875792226598    0.23669724195443    0.52181332813233
O           1.49203263825013    1.79395144215778    2.39069742152495
H           1.49867632366302    2.74375205006229    2.33316891319142
O           1.52353157705063   -2.48036943434510    1.19440548609085
H           1.90205990610267   -1.65916818508484    1.53054907394565
O          -0.74259684294334   -1.20906101451490   -1.95901176992129
H          -1.38218582960976   -1.35380316813331   -2.65758319006966
O          -2.53109947061614    2.01558303145309   -0.10757342025048
H          -1.89540600661631    1.67237577300346    0.55439959363194
H          -2.53674484280152    2.96796099710359    0.00299917608576
O          -0.51857754524391    1.36887944972898   -1.79842830119045
H          -0.57653199913903   -0.22209351850563   -1.94068158919903
H          -1.38436846043641    1.61529423337816   -1.41641378949255
H           0.12809372752968    1.80453750848965   -1.21554480228763
O           1.95767152873922   -1.73619164184084   -1.31791866956084
H           2.00242759802294   -0.87963478976382   -0.86493017212925
H           1.79985109667915   -2.48094741416499    0.24639539785472
H           1.10725300155518   -1.72486406119033   -1.77668698989493
N          -0.87137586293270   -1.50113430872882    0.72540449380102
H          -1.67372644163322   -1.96864974160478    1.13332704239070
H           0.05072547533396   -1.98502879170205    0.98178097172760
H          -0.93424168941081   -1.47354164887538   -0.31711106248483
H          -0.80185066576162   -0.50023680421586    1.06725543030160
