    26
        -50.46214876  Gyration_radius:  2.45499819865 Dipole_moment: 8.527
 S           1.64123322268139    0.03821732637320    1.36863430678538
O           1.48896401002521    0.06799793806699   -0.09082721165579
O           0.36666819772168    0.38235308483133    2.01130079622350
O           2.17683163379396   -1.21303674822592    1.83120558215975
O           2.64906123112642    1.17288240247531    1.75883295804889
H           2.24507856631236    1.97894313048550    1.41169315342113
O          -1.30927628306231   -2.18402491836829   -0.58219280212395
H          -1.77283796211607   -3.02103228487983   -0.52864945248551
O          -1.55615144385465    1.98024560048140   -1.19430836097107
H          -2.07035284478258    2.43096072552371   -1.86471700309159
O           1.04058813770264    2.66722711098039    0.08443651540823
H           0.11881318411482    2.81351446057854   -0.15344474542718
H           1.23363585600652    1.75712891567711   -0.20173918660020
O          -0.21385284153589   -0.06732636586206   -2.13082485711335
H          -1.00825144224392    1.29638232278397   -1.66857777603003
H           0.52030143188977   -0.03057435017841   -1.48549300226285
H          -0.69393317265768   -0.87538515476017   -1.90969456580451
O           1.18002985061714   -2.73971429827166   -0.05416962455464
H           1.69951090058160   -2.38957809872509   -0.78280265320593
H           1.54631707103623   -2.28289800995092    0.73868734515892
H          -0.35750059061761   -2.39062821055663   -0.34597910910877
N          -1.81960164267895    0.12091711712164    0.75478826548235
H          -1.88505047260710    0.90084073768274    0.07047338185153
H          -1.74073037390924   -0.78974737528601    0.25356960253058
H          -0.87851886168964    0.25001324509591    1.30936760194923
H          -2.60097536196592    0.12632171704658    1.40043084141062
