    26
        -50.46214861  Gyration_radius:  2.45496375765 Dipole_moment: 8.532
 S          -1.13839789045750   -1.15159281239187    1.39549699097342
O          -0.85885001538716   -1.22484513270088   -0.04344534193292
O          -0.15463393012822   -0.28141502293025    2.05200142233132
O          -2.49475863895382   -0.75841505838054    1.66385508316982
O          -0.92096192805391   -2.58501410348421    1.98980323944737
H          -0.00548829090639   -2.79847534001789    1.76647444576129
O           2.63589021387601   -0.12146175410666   -0.89545271629261
H           3.37963365043713   -0.07300853044637   -1.49671445213814
O          -0.82431219707601    2.28720364088303   -0.95888181435555
H          -1.19519432125625    3.16583322821946   -1.05267687937688
O           1.42185540162809   -2.42843908967150    0.53775828521816
H           0.62615856569751   -2.06264845198669    0.11300239777751
H           2.13107113904004   -1.81939549386780    0.30570095602142
O           0.31796978921583   -0.04418580505150   -2.11708388302294
H          -0.17975193443330   -0.56713870869899   -1.45707031382942
H          -0.03870253787225    0.84983075138924   -2.04108808151857
H           1.81814852505237   -0.19297385517918   -1.46024861845767
O          -2.85308932500224    0.73017776173083   -0.46569187715175
H          -2.81951997382049    0.02308509679265   -1.11554787952194
H          -2.81350164312283    0.25883074975060    0.39907793143543
H          -1.59962060384131    1.69270119395474   -0.73530689334586
N           1.13437215383941    1.44767622500262    0.71934973772056
H           1.85871178259388    0.94460855016191    0.16880500081973
H           0.59072291801413    0.69514254819212    1.30907994655391
H           1.54877128601351    2.13440270948177    1.33911466336610
H           0.43347780459618    1.87951673371967    0.07968863036069
