    26
        -50.46214868  Gyration_radius:  2.45500387383 Dipole_moment: 8.527
 S          -1.81549190483986   -0.02148458519755   -1.12739817350921
O          -0.58947050000312    0.78547744456095   -1.12753764042323
O          -1.58540418292219   -1.27986183172846   -0.40651493223773
O          -2.94457191521467    0.71052966123022   -0.62159134269309
O          -2.11774021119909   -0.41679708257715   -2.61318622151477
H          -1.32463948039244   -0.88849131317199   -2.89938437322918
O           0.15718335088453    0.97985547512451    2.41704749026590
H          -0.01833950487508    1.20275596680148    3.33243583861755
O           2.47539482464005   -1.24002410619069   -0.31796249744168
H           3.42553743280962   -1.35816435107646   -0.30132296177909
O           0.55774759966708   -1.09632316341954   -2.58765319163402
H           0.31595589145063   -0.27960690001781   -2.11663951767208
H           1.22933103321707   -1.51267861699581   -2.03684720081573
O           1.74084134751351    1.24610076229643    0.07083635822693
H           1.45517282467471    1.34188139302773    0.98814358143698
H           2.31037538993212   -0.25857359714105   -0.26967970510180
H           0.91048464569157    1.20465812804050   -0.44457333512192
O          -1.63905892793990    2.26622163622818    1.03794734140800
H          -2.24022213951132    1.69415040381426    0.50606067849223
H          -0.55401226553491    1.44714534795690    1.88758822218498
H          -1.16399253281999    2.77828842731461    0.37807883735618
N           0.30099605301605   -1.47665019956897    1.27583004378472
H           0.28005022922701   -0.58565242383091    1.81686278065697
H          -0.51491199845722   -1.41020185078882    0.54138623108006
H           1.19082067475762   -1.55076343031728    0.74330382115390
H           0.15796427627149   -2.28179119435986    1.87476984849983
