    26
        -50.46214872  Gyration_radius:  2.45501676055 Dipole_moment: 8.527
 S           0.35012870134574   -1.92623091714346    0.85771182730281
O           1.13705270656885   -0.70158343103942    0.66985012042152
O          -1.07993375474674   -1.62924812342344    0.70692502720876
O           0.79068478557991   -2.98962906472482   -0.00340601534906
O           0.54744101860859   -2.38861754733824    2.34183390386429
H           0.25102793127597   -1.63413846540710    2.86747251235139
O          -0.02194657138567    0.42178852821107   -2.57846698903422
H          -0.17420782348341    0.34772495110432   -3.52170377239289
O          -0.93340843311400    2.41925254703954    1.02114635931096
H          -1.01590641548449    3.36510392754937    1.14590315379182
O           0.00516851709060    0.27019405470666    2.85222676165356
H          -0.56602880300912    0.99516877464981    2.57682749608072
H           0.56774714783172    0.08503873023294    2.07982626286541
O           1.63264797305959   -1.50263474522016   -1.99315605921732
H           1.28836594121339   -2.16167264185851   -1.34602606377071
H           0.58784340125806   -0.33881605538886   -2.34597839088141
H           2.37461381624750   -1.09687731184322   -1.53680848629054
O           1.18355813198945    1.74652676203873   -0.37075587487473
H           1.31416908701884    0.86553366798497    0.03380930075373
H           0.90811782748318    1.56131081069959   -1.27744127795979
H          -0.05274972464183    2.26667837326840    0.58078575175597
N          -1.84243172757618    0.42552857211732   -0.56751986817348
H          -2.82070108857660    0.34212788123157   -0.81942896039204
H          -1.67404210906886    1.25273189560619    0.03932696174587
H          -1.52704899130484   -0.46389403473846   -0.00269481239339
H          -1.23016155426053    0.46863286156981   -1.41025887839234
