    26
        -50.46162485  Gyration_radius:  2.55250358824 Dipole_moment: 4.678
 S          -0.42626068290646    2.05124144152878    0.84261369740373
O           0.98111359892337    1.64458013848450    0.80865248855142
O          -0.97469817237786    2.20352427344839   -0.49389074303948
O          -1.19407931663882    1.18919986388113    1.70996908668420
O          -0.45820985163628    3.49722625060152    1.49689007176515
H          -0.13535641022794    4.08059069851633    0.81555501771597
O          -1.37404268427576   -1.69245029133336   -0.20487401790169
H          -1.92709747156808   -2.45577272598944   -0.03196897410234
O           2.52507154304636   -2.23362439955299   -0.06436142986644
H           2.68674163329306   -3.17607502727150   -0.11793207814950
O           1.04023729747609    1.11754045473079   -1.89477634932305
H           1.64523538516411    1.27407243764042   -1.16136887405323
H           0.20913029272954    1.52800105459385   -1.59487672710281
O          -2.91340672630400    0.39074247799177   -0.10352188412915
H          -1.99910706737774   -0.90859469839386   -0.25011245033541
H          -2.54947885860584    0.65639009797403    0.76430464043913
H          -2.53118995730704    1.05830098386887   -0.69178669867994
O           0.84980430280945   -1.56335522019360   -1.95326529843987
H           0.95427223612334   -0.59698732534313   -2.09373626272178
H          -0.01386234674790   -1.66646912705469   -1.52970464602841
H           2.00460576053828   -1.99348927657413   -0.88246194909269
N           0.72400340785182   -0.89402458419325    1.34391231634199
H           1.52939341607645   -1.45161819401170    0.95130527638833
H           0.60667854174019   -1.02040490884295    2.34377451243212
H           0.88590305472886    0.14260415081239    1.15255570343200
H          -0.14540096452824   -1.18114855525545    0.83910559180798
