    26
        -50.46138168  Gyration_radius:  2.44972489808 Dipole_moment: 8.968
 S           0.23186848791920    1.93292334993224    0.94459692235302
O           0.93021327329088    1.33505480017438   -0.21247923818465
O          -0.98488521050264    1.15690478101815    1.22828032844922
O           1.07797258244857    2.07112710371882    2.09151957102095
O          -0.25494319709570    3.35144399065961    0.50245578792787
H          -0.81646618603236    3.17149411466398   -0.26713220741561
O           1.16125177035392   -2.25765812645035    0.87420619629990
H           1.59710372786828   -3.00090061000058    1.29284852124069
O          -1.72932890014732   -0.92961939781485   -1.93722767526783
H          -2.02989116249145   -1.33234914956266   -2.75242452150322
O          -1.21292944826969    1.99318709986760   -1.65380681908730
H          -0.32829572606280    1.70981405173683   -1.36877519800591
H          -1.73211685398321    1.18334929358547   -1.71755823956065
O           0.87285236136928   -0.94077518495432   -1.64583509387383
H          -0.73487163040348   -0.91357161323736   -1.97794751010838
H           0.99543700337851   -0.06705161219643   -1.22767979289936
H           1.12861331648332   -1.58130418918156   -0.96918066640013
O           2.49490765261729   -0.08355572830824    1.39659893631917
H           2.21873768882350    0.51383433377389    2.10860445851381
H           1.68854622074803   -1.44738274067170    1.13480086101832
H           2.22840629787145    0.42796779815490    0.61167013219728
N          -1.37397625514567   -1.29271558028930    0.71381517977047
H          -1.68494005547284   -1.30611007176153   -0.27719588273135
H          -0.46541711090315   -1.78684628957896    0.81724472913818
H          -1.19710645581177   -0.23339039070289    0.95841095701460
H          -2.08074218082837   -1.67387003249256    1.33219027378968
