    26
        -50.46214872  Gyration_radius:  2.45501455192 Dipole_moment: 8.528
 S          -1.19732408787488   -0.39086914984646   -1.72723051234454
O          -1.77679147447637    0.64699491899458   -0.86519346452723
O           0.19148278321878   -0.65141912987607   -1.33037874162044
O          -1.98589209256630   -1.59249053785917   -1.75744436411962
O          -1.16793546916596    0.20788195002338   -3.17489919286810
H          -0.61704156168219    0.99749105886910   -3.09452407592553
O          -0.18128794932079   -1.40123755714937    2.19692880592874
H          -0.51279138061432   -1.88765290652603    2.95308754430947
O           1.64755865516336    2.11596773616634    0.76108195192612
H           2.39249490019807    2.57382239402653    1.15155641644886
O           0.78575149805655    1.81594220303286   -2.07004356981018
H           0.79325690619869    0.88064090513812   -1.80076150836989
H           1.00502306623133    2.30755467331764   -1.27130470228137
O           1.99515991201307   -0.47835480778917    0.61797456344495
H           1.92288428597743    1.16423474424042    0.65545626119309
H           1.51351774357172   -0.89255761188802    1.34509229246046
H           1.43367580760054   -0.62837669762148   -0.16881727593259
O          -0.71151077394556   -2.89421412485299    0.12962602442722
H          -0.41483536467851   -1.95877301218773    1.39756036554828
H          -1.30689486340796   -2.48033612560705   -0.53800948369382
H           0.11731058110236   -3.01225718022634   -0.34210156143819
N          -0.78454845313777    1.12622754433977    1.41806021619139
H          -1.21960263436161    0.93752143681987    0.42561452366742
H           0.09867384150067    1.65516080215860    1.27316804649299
H          -1.44171802180236    1.64849384154144    1.98621111801501
H          -0.57861584375305    0.19060464274454    1.82929031292310
