    26
        -50.46214868  Gyration_radius:  2.45496666261 Dipole_moment: 8.530
 S          -0.63129931957745    1.32928861263626   -1.54973380436251
O          -1.14579064509016    0.93132179857827   -0.23405530442987
O           0.78729941006176    0.96742815224634   -1.66222784495604
O          -1.42673581959801    0.80016803189510   -2.62385259465906
O          -0.69132876880990    2.89323714016902   -1.62420070225846
H          -0.15534327756465    3.18696570722317   -0.87594632512631
O          -0.28936444283283   -2.59263180379855   -0.14923935755671
H          -0.30704652051780   -3.50032056199975   -0.45617745935334
O           1.59716881420824    0.30603027866005    2.26275352098039
H           1.90677111403195    0.19034916770128    3.16148643269711
O           0.50156520195963    2.68803041423105    0.85664175711085
H          -0.20245687288428    2.04458056755466    0.66260773696080
H           1.17045823823560    2.18880444827543    1.33723101355277
O          -2.21775866932531   -1.39501166711387   -1.42625725070280
H          -1.00882158544521   -2.12264151460087   -0.66476215658133
H          -2.77069521132884   -0.97875148398555   -0.75966828542273
H          -1.93191660089506   -0.64527739348726   -1.99863917451931
O          -0.80775682685187   -0.66030674625002    1.87073775687507
H           0.64679177789281    0.00699273915180    2.24898902048450
H          -1.06646816220981   -0.04371547552197    1.15676079885537
H          -0.72625424983875   -1.51843104612268    1.43575283848779
N           1.77859271576746   -0.83746356351157   -0.18347497213852
H           1.06692454626945   -1.59911644002204   -0.16501253548629
H           1.36564257573971   -0.04518168217434   -0.82497848602836
H           1.89603193934440   -0.43495064857414    0.76787334673303
H           2.66179063932779   -1.15939703114336   -0.56260795911305
