    26
        -50.46600853  Gyration_radius:  2.57514872025 Dipole_moment: 5.939
 S           0.17218898051833    0.12069290785343   -0.70448665707151
O           1.07414636364282   -0.42373772295373    0.32061515382159
O          -1.15462467093997    0.36857968923573   -0.15639637894328
O           0.72775473027624    1.33271579351379   -1.29958661003975
O           0.00995332840308   -0.94557641644734   -1.80915547169299
O           0.26283251208533   -4.14809890082732   -0.50384358751367
H          -0.35291210906761   -4.33491627078379   -1.21447530609672
H          -0.20439791481620   -3.54465634863598    0.11133468585691
O          -2.32125659330418    2.72194762715510   -0.04237157581764
H          -2.00394297341579    1.78730109906546   -0.06074101150128
H          -2.74847988079737    2.86670242317329   -0.88815712423557
O           0.52274243672656    1.26673025792359    2.26628850337634
H           0.85395961835851    0.60181500622459    1.62019188491944
H          -0.33717928396902    0.94125583650929    2.54445605887022
O          -0.85489322538090   -2.14871322605034    0.94960579739330
H          -0.03243311618070   -1.62875895094131    0.93219172014163
H          -1.49858550921267   -1.55441502037015    0.54753324401407
O           2.06827681306805   -2.35828605857707   -1.34260942437061
H           0.85351592144223   -1.50801503701124   -1.79560449276078
H           2.20469020903507   -1.81964752542734   -0.55100341810883
H           1.57544843937143   -3.15824431755309   -1.04348844995177
N           0.24941090201573    3.16008750577855    0.43377781827375
H           0.40337902163839    2.58424541035010    1.30455147345877
H           0.55372036225914    2.50421326022744   -0.36668122974175
H          -0.78339201823805    3.28120276157194    0.30321706853111
H           0.76007764649457    4.03557622701148    0.44483732918563
