    26
        -50.46162511  Gyration_radius:  2.55240823335 Dipole_moment: 4.682
 S          -1.85865817582284    1.28216814306716    0.02202800539115
O          -0.83536244453034    2.31317775424460    0.01891173524469
O          -1.71359158410798    0.37037488500003   -1.11593212434175
O          -1.96729098335408    0.55041861049871    1.26208922144804
O          -3.24089814174210    2.03546775224390   -0.18218406952765
H          -3.07611798259621    2.66229809651833   -0.88125919941543
O           1.29594266076391   -0.53514619285236    1.68251289078104
H           1.66223694860980   -0.94044014886386    2.46990554609909
O           1.16052422729884   -2.74468787164377   -1.57666132792427
H           1.75179772975793   -3.48691464250061   -1.44790035127553
O           0.75084025451401    1.31771266832273   -1.90319771199304
H           0.33996184583009    1.84045892564096   -1.19109561765820
H           0.01924914732849    0.79372616468880   -2.24752311913999
O           2.41482147627927   -0.54992917577393   -0.91847640180949
H           1.94046810537368    0.18888059075722   -1.35852955028128
H           1.71570454594165   -1.92267459361298   -1.45861733977873
H           2.21525854880744   -0.45446062840279    0.02337160599147
O           0.10832451572362    1.64113953299984    2.43873652706622
H           0.91983043299077    0.34647013831121    1.98031767435709
H           0.14494378391366    2.26092428034693    1.69558409352780
H          -0.77449459482678    1.23775651661425    2.32018869317819
N          -0.60143771339344   -1.66178591880506    0.08011288829171
H          -0.02710395186558   -2.23514639756716   -0.59440686889966
H           0.04978087749275   -1.23163553973890    0.77590856590011
H          -1.08227699270843   -0.87094330717112   -0.44980738557256
H          -1.31245252571296   -2.20720964226658    0.55592363027760
