    26
        -50.46162515  Gyration_radius:  2.55245587504 Dipole_moment: 4.681
 S          -0.46548173907005    1.30371041912264    1.78410071648004
O           0.73233753446116    1.96093972929049    1.29094009983855
O          -1.50331044890063    1.22206463155183    0.75274067427767
O          -0.23406870441474    0.01360204172591    2.38988724780654
O          -1.04301535376299    2.24338726442295    2.92574927588273
H          -0.99342410978906    3.12436256109711    2.56492275935244
O           1.46885591115424   -1.61735877901669   -0.14905664507840
H           1.92208072078521   -2.45891454307803   -0.07975258638356
O          -1.63237999739930   -1.44522766681512   -2.57153138598400
H          -1.58778069247799   -2.20558626054144   -3.15205553256681
O           0.11676319222729    2.04138929770003   -1.31962530714825
H          -0.81868739538848    1.94332621956905   -1.11069684179724
H           0.53914882367509    2.10569434980966   -0.44404800132388
O           0.70781887622516   -0.28537571367895   -2.52926714868946
H           1.16144889873092   -0.72897556053899   -1.79886981096168
H           0.56116772551813    0.63531931981921   -2.22049963548049
H          -0.77425087825740   -0.94927664939553   -2.69581736465676
O           2.31857347556628   -0.14102798962261    1.80477756980258
H           1.47906844395487   -0.25047399711332    2.29407677719515
H           1.87426458792290   -1.03120588173341    0.55762276994918
H           2.26018870651113    0.78076654882873    1.51392845095136
N          -1.22943261557268   -1.27119356777970    0.04173650769206
H          -0.19820615515176   -1.44083636201847    0.07399675516744
H          -1.40243478546752   -0.25545328699628    0.31711454877676
H          -1.55515087251491   -1.42435179784044   -0.95024778573891
H          -1.70409313855246   -1.86930431675896    0.70987390261343
