    26
        -50.44057496  Gyration_radius:  2.46873818662 Dipole_moment: 6.445
 S          -1.15908622632177    1.19384286346017    1.00786351125166
O          -1.57331166609096    1.31980802677508   -0.41041061883715
O          -2.16463368283048    0.52218462139523    1.79075880224431
O           0.15602495142044    0.61384149441380    1.10264533543759
O          -1.05585977748821    2.67677310937897    1.53559229117460
H          -1.93991994197822    3.01714446852473    1.43962042773939
O           0.01403827312940   -2.37499209645100   -0.39447832840306
H          -0.44073940524551   -3.15102292677487   -0.72586792314016
O           1.96076265425022    0.61528076887221   -1.94145531512969
H           2.60536482847649    0.39590544283510   -2.61533272071259
O           0.39306867928114    3.06589355278652   -1.39783776254842
H           1.09717016487173    2.41955208173673   -1.50930151316742
H          -0.35338135538424    2.59044569537839   -1.01390682105313
O          -0.42635359884462   -0.30860153480469   -1.83800905964416
H          -0.27152164234718   -1.13575721708847   -1.25170692946867
H          -0.97665004033856    0.41208017286618   -1.23363745356539
H           0.49187848668102    0.11050920557810   -1.98666835027119
O           2.27031174923367   -0.75012363523101    0.24516643523867
H           1.64246670454159   -0.18757750362458    0.73693379291794
H           1.77711237786006   -1.56059178005593    0.06627379063659
H           2.23746214914757    0.15688700866061   -1.09557735323684
N          -0.90001105750467   -1.95284302819867    1.98241555115467
H          -0.35305524985478   -2.20438005209396    0.55576365879200
H          -1.48689435334807   -2.64305734739076    2.43558021505781
H          -0.11419541188997   -1.76343880632648    2.59264297944012
H          -1.43004760942739   -1.07776259462211    1.92293335809220
