    26
        -50.46461196  Gyration_radius:  2.53587858228 Dipole_moment: 3.104
 S          -1.33291904254060    0.51122027119450   -1.55304823991729
O          -1.63441418249583    1.48082207420656   -0.50731534354161
O          -0.08536465115358    0.79839963527547   -2.22602401785380
O          -1.41987561336384   -0.85975296837273   -1.06533151749735
O          -2.47942145333188    0.64387721319692   -2.63934992576995
H          -2.25658291914256    1.45596827323179   -3.08306387350698
O          -0.43384053635561   -0.37293155026839    2.62817778311409
H          -0.60639600276386   -0.52742657541276    3.55725655885296
O           2.01203706214359    0.83623776839832   -0.62953872227999
H           1.36534875851685    0.90991919689342   -1.36645985118825
O           3.21374395595896   -1.77826109445632   -0.82006956557358
H           3.12856514140564   -0.81651739746307   -0.87641669154922
H           3.81948070581678   -2.03757138162239   -1.51502445587533
O           0.42596207685250    1.96028806663894    1.17717261080174
H           1.67668161452886    1.46526207904570    0.04728678811040
H          -0.34374469040383    1.96291646628351    0.57832485142930
H           0.21631796719705    1.31164577827058    1.86258499179275
O          -2.65611276981278   -0.18100064563778    1.25309927941601
H          -2.43675327176399    0.61341445147640    0.72307826448557
H          -2.60946453141162   -0.88565933115041    0.59474390262826
H          -1.32470910993292   -0.29669422770670    2.18410290924835
N           0.75112335099258   -1.26774840986711    0.35239383595400
H           0.46484937582103   -1.12906118450196    1.33678159740330
H           1.31900197651968   -2.10173567366070    0.21173854766421
H          -0.11068919880451   -1.26118816673321   -0.25573934051591
H           1.33717599754982   -0.43442266726497    0.03063963423791
