    26
        -50.46461202  Gyration_radius:  2.53597166045 Dipole_moment: 3.100
 S          -0.47532207101570    1.87593047291960    0.83967881542292
O           0.56352098219490    2.29855149770073   -0.07359969787581
O          -1.69726347188250    1.48665807730024    0.14681027366463
O          -0.03345827225606    0.85249487000499    1.77878411827987
O          -0.84052126702538    3.13486535099808    1.73065219152848
H          -0.91286323160783    3.83357195654209    1.08827101969046
O          -1.34392753382509   -2.32972860588583    0.03987960837291
H          -1.82240052052839   -3.15812279048187    0.08063497890711
O           1.26230744669360    0.45851556898447   -1.82696285864497
H           1.11626164635562    1.27490813685296   -1.29878104822785
O           3.59214977217155   -0.84597563343072   -0.73755337207928
H           3.04523323414595   -0.34054768614019   -1.35463497043199
H           4.48207235638044   -0.50184661655328   -0.82024922042812
O          -2.35875239508013   -0.54804005699864    1.67164165692211
H          -1.64406649727594   -0.31783184612250    2.27822140948540
H          -2.37238853458547    0.22051746329137    1.06356920012566
H          -1.80069679982689   -1.70783426335477    0.67320714762948
O          -1.30259286190796   -0.21729803766994   -1.91583760629603
H           0.37211510153218    0.24071094472812   -2.18246670643158
H          -1.42589648372276   -1.05396090320052   -1.44759175494125
H          -1.56209241624884    0.47606718858202   -1.28111153337203
N           1.03815246163522   -1.05412848041069    0.32747354816681
H           1.15599727306657   -0.53267942555925   -0.59757111148552
H           1.94864900660060   -1.44382645798606    0.56615932477166
H           0.71639546417275   -0.32962298012777    1.02331653491477
H           0.29938761186129   -1.77134772400992    0.22806005235784
