    26
        -50.46461040  Gyration_radius:  2.53470841213 Dipole_moment: 3.048
 S          -0.23216102366603   -0.08341462017855    2.09090237048236
O          -0.92074134509796   -1.27879246668611    1.61999878062470
O           1.20639122111544   -0.21540491944340    2.02292545600416
O          -0.72931230083692    1.12289045962597    1.44120665325661
O          -0.60659233651523    0.07992525683258    3.62226120948963
H          -0.11259476731604   -0.62058150730358    4.03618693563586
O           2.12657681038854   -0.68613898579721   -0.40138904657562
H           1.98126213186585   -0.56210012360482    0.56321634030573
O          -1.80080642637855   -0.29153927409067   -1.98177698571876
H          -2.45675686953327   -0.37727967279139   -2.67401962340758
O           2.91691792629970    1.88454008415451   -1.44483456343905
H           3.74809508118909    2.30812907514791   -1.22831786177397
H           2.99453754602246    0.96578286475820   -1.15309848384500
O          -0.02466775133595   -2.19958411938998   -0.76005968764538
H           1.56551538251769   -1.45979928264118   -0.63051279361086
H          -0.35343681662565   -2.03932911183844    0.14387706961812
H          -0.64283067404311   -1.74009931340730   -1.34418218804180
O          -2.91318712314599   -0.09408203177661    0.38288227380386
H          -2.61624291650658    0.75400611320145    0.73565661083239
H          -2.30340579063577   -0.23852249295799   -1.12095830884602
H          -2.34826165951970   -0.73113128839208    0.86812062806277
N           0.29051469004611    1.12396267005843   -0.97766636734500
H          -0.11036380600714    1.28416206148469   -0.01520234682652
H           0.74087292112931    1.95729894470538   -1.35276651472157
H           1.05451508918870    0.38773067316009   -0.85203167344533
H          -0.45383719257732    0.74937099715266   -1.59041788288805
