    26
        -50.46461198  Gyration_radius:  2.53612443018 Dipole_moment: 3.102
 S          -2.10316216398196   -0.04567657736074    0.16545281647276
O          -1.94610544331396    1.31469423667032   -0.29990244122964
O          -1.81657979347911   -1.02419215256766   -0.87625480390074
O          -1.36300634221927   -0.32273573123150    1.39018295701613
O          -3.63092440654585   -0.22465185714190    0.54767174050597
H          -4.08084587071995    0.16550785689541   -0.19488959419859
O           0.47172240978114    1.87165320127334   -1.19052883864412
H          -0.48115344061430    1.85170668379291   -0.94900036320115
O           1.79761861179289   -1.99958468732957   -0.04666958495488
H           2.42866357107832   -2.71969707308360   -0.03888160658295
O           1.87789017910853    3.10301649359066    1.00583952809446
H           1.80641127488406    4.03130907056960    1.23026067552673
H           1.48191059896342    3.00257695442392    0.12918872941683
O          -0.60325378028540   -2.81296597677835    0.61740276125052
H           0.91447750596530   -2.39473243431180    0.19915358321349
H          -0.83838740005286   -2.30444067670596    1.40349052665686
H          -1.11434418320478   -2.35938604860672   -0.08512484211131
O           0.50338481535100   -0.58484961449004   -2.19438903618832
H          -0.39839600237290   -0.78250853410801   -1.88014639905458
H           0.57221610045452    1.13211942086152   -1.83026384298368
H           1.08906722291223   -1.13784669785591   -1.65996482037837
N           1.10769571072958    0.43821087798612    0.93578344284131
H           1.60621614815726    1.02343540530602    1.60424529057531
H           0.14275297883456    0.17662754657889    1.27203327836857
H           0.95681408865517    1.02826806916278    0.05798252303176
H           1.61931760973195   -0.42585774572273    0.68732832014754
