    26
        -50.46162499  Gyration_radius:  2.55251150999 Dipole_moment: 4.681
 S          -0.51558372130598    1.72695640043714    1.36124613243479
O           0.81175955027782    1.39988923212881    1.85262916898248
O          -0.50650131647039    2.01460296405116   -0.07560273819627
O          -1.53155757881589    0.75451114151830    1.68881839102972
O          -0.93060568684279    3.07748303517914    2.08489108946836
H          -0.15651220554864    3.63114556339858    2.03007095986257
O          -0.10936171270329   -2.14463197939049    0.43175239572178
H          -0.41975029256360   -3.03906308749000    0.58060390804544
O          -0.21954463008381   -0.79611644942163   -3.26837984448881
H          -0.31210350707108   -1.55165578510155   -3.84952327328321
O           2.07852977100270    1.16061864071357   -0.50080279853721
H           1.82319317682451    1.18386963296916    0.43914971997211
H           1.39856983788332    1.69063504488831   -0.93104653597466
O           0.08050844024428   -1.01740698476308    2.75816580885520
H           0.77908909101474   -0.34953227264842    2.69729624898749
H          -0.72263168352455   -0.48267189622066    2.59950947740793
H           0.04337643571365   -1.75466243146977    1.34389481133582
O           1.70157346458611   -1.27884256861563   -1.56542246357111
H           0.61049298563376   -0.95459599714596   -2.73565972517958
H           1.24155128693220   -1.70123989632868   -0.82655953799197
H           1.99786634665897   -0.40825577131739   -1.22075231574572
N          -1.44803552274816   -0.23915295062420   -0.98742475350723
H          -1.12623801122344   -0.41553250771811   -1.97682023147188
H          -2.45824092896634   -0.24850127112196   -0.89339569104070
H          -1.02119572461650   -0.96930894848434   -0.37268147273844
H          -1.08864786415823    0.71145911257882   -0.66395673036592
