    26
        -50.45792514  Gyration_radius:  2.59172803967 Dipole_moment: 3.523
 S          -1.18751829305829   -1.65808265260723    0.94961464251778
O          -0.84172218120802   -1.22604420934719   -0.39160719928495
O          -0.60068689817761   -2.91684491836619    1.34535722374756
O          -0.96476527428535   -0.58912160565416    1.91924731767742
O          -2.76423674265946   -1.89786498559237    0.91462096264663
H          -2.91023512419937   -2.43276048211731    1.68866390643758
O          -1.08543301104885    1.02782148828637   -1.86045486362090
H          -1.44413756277125    0.19679674608717   -1.50661797380632
O           2.55801910177304    0.31149999707741    0.48035596515563
H           3.31716241830935    0.43454828372926    1.05153053513826
O          -1.32969479468056    3.52854732323219   -0.46764081687945
H          -1.42470073473666    2.83560796494618   -1.13638923145915
H          -1.93979802013654    4.22617473084134   -0.70856576648966
O           1.21973588105498   -0.40354538660507   -2.02070123199293
H           1.89903009586530   -0.08907867814141   -1.41490308498764
H           0.58744996748756   -0.90228511519179   -1.47616110009826
H          -0.27721774904858    0.74219893437871   -2.32476266155364
O           1.81198670247619   -2.21412087785162    0.62544308445214
H           0.94576378687991   -2.50223178306551    0.99177430577971
H           1.87145777117365   -2.62402787997636   -0.24113330004604
H           2.27823264381104   -0.63174228307912    0.59883047765057
N           0.06666345001378    1.37944842288910    0.60825431057027
H          -0.14971253934654    2.32780974897067    0.91034202020411
H          -0.31960033034173    1.26368172783840   -0.35704247220517
H           1.08487980653273    1.17632066280026    0.60101909508430
H          -0.40092235974813    0.63729483655407    1.22092586539140
