    26
        -50.45792513  Gyration_radius:  2.59149720627 Dipole_moment: 3.527
 S          -1.05989883879675    0.00524150777877    1.98401585600915
O           0.27982872273190    0.26118000574587    1.48919131840602
O          -1.73806862715466    1.16670844235825    2.50993209855655
O          -1.85190498162386   -0.72735998355921    0.99989158001435
O          -0.86382417277903   -0.98748625164067    3.21722170342300
H          -1.69252741854808   -0.91054758720325    3.67970689859387
O           2.13389265445489   -1.06878944499926    0.04377294942394
H           1.69065882380485   -0.86638546762591    0.88464728737248
O          -0.74785213626103    1.56922859510348   -1.96290903210109
H          -1.38571287444250    1.92206227511171   -2.58443362502088
O           1.23556959235543   -3.16089754736035   -1.70747991560672
H           1.78098242316590   -2.64089950187258   -1.10044837674174
H           1.67182344984135   -4.00708691037787   -1.81007786555474
O          -1.22350130684187    2.62926397413316    0.40503840371779
H          -1.51985437455216    2.10502547348601    1.18270703655318
H          -0.45410028556850    3.11921733996160    0.70586755281252
H          -0.98789508107166    1.95093255055208   -1.08047403504623
O           1.74630298368903    1.57991578397234   -0.43191055338238
H           1.21002023245153    1.32503867601173    0.33783168633157
H           2.43517745985333   -0.19494906585664   -0.26576123013148
H           1.12151585244150    1.74668389334714   -1.14538017982132
N          -0.36474683963024   -0.97268671773977   -1.09440434348871
H          -0.52410271835473   -0.09409873516087   -1.62441530906405
H          -1.03075318840718   -0.96312309437993   -0.25707557555164
H          -0.46870804339233   -1.80922068138855   -1.66610896636645
H           0.60767869258133   -0.97696752847474   -0.70894536352020
