    26
        -50.45792505  Gyration_radius:  2.59167422834 Dipole_moment: 3.518
 S          -1.85387051546549   -0.93435920104079    0.86588945352717
O          -1.01675250522198   -1.11167711729708   -0.30579756932888
O          -1.81515224049966   -2.03185253640871    1.80381640276711
O          -1.61562882762291    0.36438141104437    1.48964067670184
O          -3.34663687863872   -0.88538078077725    0.30549862183759
H          -3.86722876686644   -1.05171182523010    1.08517590918062
O           2.27442493181813    0.01092601263706    1.30370937374843
H           2.83213913446116    0.20482938552022    2.05804802219746
O          -0.12913150783645    0.42066075662287   -2.34647998593539
H          -0.80909981262258   -0.13565043454802   -1.93116615061429
O          -0.01156196154997    3.26306777310605   -1.94619007442140
H          -0.10745551965542    2.39715532978881   -2.36736648124218
H          -0.28997133170010    3.91321351532556   -2.59185565945985
O           1.57896868237325   -1.34966242080842   -1.19127786148669
H           2.11236639027761   -0.95510924365908   -0.49334677796967
H           0.69556029454341   -1.48341438569888   -0.80813980845626
H           0.65470167405763   -0.15889577745256   -2.36162078529658
O           0.79672811722432   -2.09513929739698    1.88462415869002
H           0.98207628982948   -2.80693773056926    1.26696909114283
H           1.70267130681204   -0.75108348091175    1.57657974715507
H          -0.18350133465026   -2.06400211283251    1.96068720714053
N           0.29612582941556    1.47112101358881    0.15601259712172
H           1.16141781871036    1.10319985529003    0.59648236964930
H          -0.53080280120764    1.11279841556166    0.73267267583709
H           0.29551924669910    2.48529480879034    0.06141915676757
H           0.19409426700870    1.06822806724606   -0.80398430915723
