    26
        -50.46722929  Gyration_radius:  2.51315603954 Dipole_moment: 5.597
 S          -0.72116253658260    0.11894848227138    0.47383549046904
O          -0.95176010094309   -0.89019663496085   -0.70523060064692
O          -1.04455048111330   -0.63706498752489    1.67606726117266
O           0.71284421664421    0.44250300356147    0.43805625001927
O          -1.55317900716442    1.27452278795018    0.25422272536791
O          -3.18108155360571    1.62182053849609   -1.81544055899494
H          -3.99422395497235    1.14747707741362   -1.63763077160993
H          -2.66073442370737    1.58934901384400   -0.98495585408278
O           2.41506555977598    0.28577621320358    2.44482292906347
H           1.77326676123665    0.50281228870762    1.73106358443088
H           3.24462868328719    0.69547257037688    2.19579289226911
O           1.39944781668615   -2.17917098518128   -0.48221253232786
H           0.48643096959634   -1.88419113661910   -0.66900908620534
H           1.94650524346828   -1.41911381246356   -0.70125985190984
O           0.48828647222845    2.31157752202970   -1.42800608008624
H          -0.23094262635221    2.85175693672577   -1.08873206429223
H           0.68123113258317    1.67604567762921   -0.71050758013571
O          -0.93673825582076    0.51671824400265   -2.78424057537720
H          -0.30998907526846    1.22382515463859   -2.50272783217675
H          -0.95474413424682   -0.35561028860177   -1.59711623568139
H          -1.82343250995073    0.92820052775631   -2.71537886124711
N           1.05968172115729   -1.99856395141951    2.14778247296296
H           1.74209996452208   -1.29168840001224    2.48710369393110
H           1.31223867540844   -2.26340146550826    1.16017949483845
H           0.98690410029402   -2.79846882372778    2.76624873790929
H           0.11390736284205   -1.46933555258607    2.04727294234105
