    26
        -50.44057487  Gyration_radius:  2.46889701592 Dipole_moment: 6.446
 S           0.42176480295098    1.17319898006775    1.49334917608743
O          -0.98345977915978    1.46804423430184    1.12276060837788
O           0.49965270457239    0.50631651134382    2.76783090231905
O           1.09646455999103    0.48896852545427    0.42028845348868
O           1.10624414185068    2.58552433383728    1.65164977840454
H           0.61833215497972    2.99958364872385    2.35679414804458
O          -0.61949199941499   -2.31954415896847   -0.17838622333769
H          -1.22721336195200   -3.02333699777765    0.05458389622190
O          -0.59243220302691    0.65294977043160   -2.68635254281106
H          -0.86882313658774    0.45262570102748   -3.58148445802802
O          -0.62231286765138    3.14995309117847   -1.09767825375898
H          -0.44075757473471    2.46666265714937   -1.75048316688647
H          -0.72898183989204    2.69660946004995   -0.25284263846091
O          -1.82282014528052   -0.09518778719910   -0.56745151914467
H          -1.49634169618653    0.60251982696291    0.20340063849804
H          -1.43491844155424    0.26637870666069   -1.43900752981505
H          -1.34469964939256   -0.98487797064796   -0.38914635076365
O           1.26540925854405   -0.93832294801300   -1.81571938681847
H           0.21410507783762    0.09499055049531   -2.48534124304564
H           1.43692936131157   -0.38123217990229   -1.03295245711406
H           0.76460135520954   -1.68843389045645   -1.47127482292445
N           0.99902830911483   -2.06402263493157    1.81619874320740
H           0.02709103314262   -2.21535473594416    0.62038225685076
H           1.94090476735499   -1.99509893834379    1.45024670175708
H           0.78743018296599   -1.14983643475360    2.22819719318289
H           1.00429498500530   -2.74907733074765    2.56243808646927
