    26
        -50.45792501  Gyration_radius:  2.59165704657 Dipole_moment: 3.518
 S           0.79974424534488    0.29285596727771    2.08173643046021
O          -0.27612923878659    0.82545959370194    1.26695941201795
O           0.36487521481903   -0.49791126033429    3.20920728420307
O           1.79854276775114   -0.38127196923516    1.25682378090267
O           1.52781286791247    1.57272494600688    2.69548112025581
H           2.02079697390717    1.20311533364312    3.42138433996094
O          -0.87937522350236   -2.32832041480360   -0.82279614002536
H          -0.79862179721727   -3.26753438356170   -0.99314705826438
O          -0.51609053901071    2.03419677770019   -1.13731032064172
H          -0.33505957212410    2.06238894646704   -0.18299674861962
O           1.55034512339071    1.59065389478528   -3.08279282786774
H           1.92834886003185    2.27373897250236   -3.63723022515042
H           0.84402466144073    2.00980346762645   -2.57117620002830
O          -1.23243929096174   -1.98314109486565    1.76825329865616
H          -2.07648020859538   -1.55410646099404    1.92965841370009
H          -0.96061233629416   -2.23594145804201    0.16043881562540
H          -0.58734764546976   -1.51550687701396    2.34504787410586
O          -2.35263815334124    0.16535218397787   -0.41526155464770
H          -1.40243705264474    1.63103162158522   -1.18448448963028
H          -2.13578605852102   -0.71631704034303   -0.73613395976738
H          -1.76498492143068    0.32499357334658    0.34257754843570
N           0.90777281621525   -0.31480889318286   -1.16383136090866
H           1.58133465919493   -0.25151749493759   -1.92527567746667
H           1.37736461627309   -0.34524461885823   -0.20284818620657
H           0.32482488767620    0.55340120371424   -1.18977789087233
H           0.29221434390507   -1.14809450616469   -1.23250568826230
