    26
        -50.45792500  Gyration_radius:  2.591547591 Dipole_moment: 3.516
 S           1.84684259590410   -1.21260515922334   -0.42002622392991
O           2.25871652624186   -2.32662172138152    0.40145769344460
O           0.44787710044799   -1.23073544579459   -0.80433786544983
O           2.22097380150820    0.08374255369696    0.13849972865419
O           2.65480883706396   -1.35120535889030   -1.78849631027744
H           3.51975572257470   -1.61787890431496   -1.49294069405989
O          -0.94000666215174    0.28035237740304    2.43157124505490
H          -0.87479583463430    0.52297195805524    3.35601321018520
O          -1.30759622755819    0.48131969202572   -1.93844525491767
H          -0.59716194642371   -0.17860942352393   -2.00253051659660
O          -0.77577044784322    3.29612618738083   -1.72277127655180
H          -0.87742074193205    3.92314545933631   -2.43931258277088
H          -1.07766454576421    2.44070464754302   -2.05970370317373
O          -2.13658360597129   -1.07373122210385    0.13102305075503
H          -2.06121628531992   -0.63392817461637    0.98436699173368
H          -1.99769601510713    0.01765689256403   -1.42938838908998
H          -1.23414843689471   -1.34240162066629   -0.11083363278642
O           0.28696003182506   -2.02959844664271    2.09188266940125
H          -0.42837169978976   -0.56276584730210    2.33463900812137
H          -0.33403271803815   -2.68594019692815    1.76616202279659
H           1.09423659830441   -2.13751868523702    1.54036343203910
N           0.06016869535926    1.49179074226180    0.21902669486364
H           0.13423261694912    2.49876190676842    0.08487945843615
H          -0.51198899747250    1.11299717095875   -0.57057791749920
H           1.01041233996219    1.00186785308990    0.17687310518604
H          -0.38053071118874    1.23210277565175    1.12260607649194
