    26
        -50.46461183  Gyration_radius:  2.53615562278 Dipole_moment: 3.102
 S          -0.51320273755678   -1.78426211086132    1.00356690976576
O          -1.24436247632488   -0.59147523611035    1.41242486944774
O          -0.73299322953558   -2.10151232260128   -0.40210688085975
O           0.89192447565311   -1.73604694465891    1.34284631169091
O          -1.14537364232223   -2.97227106400026    1.84089788484470
H          -0.51803296521091   -3.67678200916333    1.71396356732472
O          -1.30870252228106    1.37935226960096   -1.90118582074350
H          -1.79446584055800    1.86883699507275   -2.56553184773210
O           2.26615664454607    0.03981358970132   -0.03805140261178
H           1.94755299320598   -0.69174017051181    0.53646648584529
O           2.40989988304171    2.40759077839238    1.60146159770406
H           3.05726636429732    2.53882949613093    2.29491515116449
H           2.70809136002877    1.64263205306500    1.09022489171121
O           0.74893133636087   -0.62074885305369   -2.11248135516297
H           0.25387263736701   -1.29038521728954   -1.60499914522911
H           0.11794409750546    0.09181531090003   -2.28194696700189
H           2.00169155527275   -0.23449274678505   -0.94425199327750
O          -2.77720494356906   -0.50747855403212   -0.82872927955797
H          -2.12684748734468   -1.23998393865472   -0.86346631566166
H          -2.80925756157812   -0.30498258777278    0.11441485737796
H          -1.92952422083910    0.67729304347299   -1.55737456823733
N           0.08224751217935    1.45021222557529    0.43268472844243
H          -0.41322667202296    1.70778147967217   -0.43794838247392
H          -0.48958117327262    0.72928934289089    0.94849607538543
H           1.00319929939112    0.96648777662020    0.18917574114853
H           0.31399735356294    2.25222740449568    1.01653488670432
