    26
        -50.45792512  Gyration_radius:  2.59171709678 Dipole_moment: 3.524
 S           1.95578231075105    0.41411358474754    1.03202596062471
O           2.88495771326906   -0.62835303655321    1.40013365186265
O           1.46470454588841    0.33129377236287   -0.33075789436594
O           0.85412092410417    0.56372692644705    1.97887090827707
O           2.77734599669389    1.78001416784839    1.09453812974046
H           3.30396609663759    1.66984381216105    1.88008252194724
O          -1.27287223369398   -2.26834063905285    0.32178052969889
H          -1.69165928571421   -2.95216117714742    0.84589102024264
O          -0.48289295482963    1.49359996726863   -1.79768439767066
H           0.41109383435122    1.48869043080418   -1.41656807367011
O          -2.74495418072709    2.59486853821964   -0.41111923062555
H          -2.04794982684963    2.45517732499376   -1.06767509595444
H          -3.15228538699333    3.43596205072300   -0.61994942224058
O           1.34120677848369   -2.54938910455509    0.52883354844732
H           1.92549271819644   -1.87913621152740    0.94954394579794
H          -0.29786409016812   -2.37576532256464    0.46315637548125
H           1.72304460332126   -2.71294933363229   -0.33717013952253
O          -0.02977976372526   -1.17087447542389   -2.08844648724167
H          -0.59633543219599   -1.71107898980691   -1.52768846831632
H          -0.51201750859035    0.66405690470785   -2.30889398541572
H           0.65509074045979   -0.80621158736465   -1.50275773495040
N          -1.31881103383781    0.43095158282594    0.59350320680831
H          -1.03648055667704    0.79553148850799   -0.34550954681409
H          -1.51655782394386   -0.58614804418093    0.52551589973057
H          -0.47346961809803    0.54751177392235    1.23885340665455
H          -2.12287655614588    0.97506560627274    0.90149138140389
