    26
        -50.46461123  Gyration_radius:  2.53455408511 Dipole_moment: 3.057
 S          -2.09086365273123   -0.12650277813093    0.20531443581490
O          -1.53224308206701    1.21956583753334    0.18215866256245
O          -1.82124442037710   -0.84885807999694   -1.03173282548605
O          -1.70804228474818   -0.88219604039550    1.37755331387640
O          -3.66155654941251    0.07163671312413    0.28089914857620
H          -3.97363792889748   -0.80118764702133    0.49765675853138
O           0.84528130350690   -1.53253996366753    1.44394588102993
H          -0.12312787454629   -1.42927062289721    1.57962823533584
O           1.52032126284109    0.69327774843514   -2.11312537451027
H           2.04572065128646    0.96048643760934   -2.86770466565940
O           2.11311582795283    0.48168297912989    3.07313583630245
H           2.09287370641161    0.47176909697618    4.03055256677783
H           1.82092422078303   -0.39389604898018    2.78471126792467
O          -1.02578117179126    1.18985790128882   -2.48601265886978
H          -1.39163745258538    0.33355024085793   -2.18034955717019
H          -1.27819613765343    1.78813242386634   -1.77182658732081
H           0.57113936178082    0.90121818749408   -2.34171299476523
O           0.66915825602504   -1.89324329510735   -1.17968205619840
H           0.91967107089337   -1.95347882955478    0.55886856212445
H          -0.28010783585696   -1.67094386030994   -1.19959500736030
H           1.11396246270730   -1.16285096320453   -1.63047553330138
N           1.05201736431148    0.94544082378120    0.55199598338473
H           1.54319390813005    1.51437642317864    1.23975397970007
H           0.02965929888213    1.19552101187594    0.48150568095336
H           1.47165054300276    0.99055192774822   -0.39228528978664
H           1.07774914217971   -0.06209960349270    0.90682224754682
