    26
        -50.44057487  Gyration_radius:  2.46885340543 Dipole_moment: 6.446
 S          -1.18831166487331    0.89346306141885    1.25481185538825
O          -1.21601149435475    0.30217056993972    2.56808581338089
O          -0.01703100782021    1.78770847567690    1.08949063423580
O          -1.25953916834327   -0.05456316918152    0.17268237943610
O          -2.44408842829217    1.84001295547677    1.13144186221598
H          -2.34210069821316    2.45249231094712    1.85334575719103
O           1.60491378075007   -1.78319209918309    0.20068885148988
H           2.40072267345132   -2.12406315670926    0.61228427880265
O           0.76918562346567    0.77300653059432   -2.60868123656337
H           1.27946422304494    0.69498143393042   -3.41571709367659
O          -0.63297098914071    3.05108455594885   -1.34226138686494
H          -0.35637228296865    2.34212953098937   -1.93121425243441
H          -0.50816548084863    2.72192515672946   -0.44408496692893
O          -0.32467983863622   -1.46524175458753   -1.87709588297131
H           0.27107075746160   -0.08580653667228   -2.47997374181453
H           0.37581604782190   -1.89284464443673   -1.36859546455472
H          -0.87881510167552   -1.02566004836876   -1.20463334543535
O           1.74914549708657    0.73279728579667   -0.24196387702285
H           0.99963505181053    1.22611791793711    0.37649063027900
H           1.68970152965747   -0.27143997401379   -0.04207062375550
H           1.42551269549481    0.85120531530672   -1.20219251999118
N          -0.32398917766271   -2.23870084264233    1.85442513976336
H          -0.62638006665315   -1.31740927506312    2.18612962828592
H           0.83307432621710   -1.96332250764070    0.86310806606766
H          -0.17588260257143   -2.82895999175254    2.66426096352378
H          -1.10390421421248   -2.61789107044054    1.33123853195419
