    26
        -50.46461167  Gyration_radius:  2.53487024767 Dipole_moment: 3.078
 S           0.49455478634582    1.42739062441297    1.46729113053304
O           1.61849406646851    0.77202943488440    0.80994564462493
O          -0.32723361259909    2.17416070309649    0.52310316500165
O          -0.28848561817672    0.52965069406213    2.28752964902408
O           1.14284474132926    2.49218082433708    2.44602598719416
H           0.41297388282097    2.73521247479790    3.00672355839155
O          -1.64684147834588   -1.26410192734047    0.91401254542813
H          -1.26168866653890   -0.66144638887690    1.58871081193866
O           0.12896882860290    0.12645292226534   -2.68734318738407
H           0.19326810641392    0.18292093624127   -3.64101062875823
O          -0.02132743067654   -3.64600452785998    0.92025164083027
H           0.00930507355980   -4.26183542530998    1.65303295257681
H          -0.78433482245753   -3.07276969813927    1.07688335849197
O           1.32775104247891    2.14217208284141   -1.51749407472974
H           0.62917150421705    2.37702515729220   -0.87145434537847
H           2.00481909640752    1.74735516482681   -0.95410454492262
H           0.59391054720221    0.93165807662914   -2.32436672149926
O          -2.05453640243927    0.64289240557709   -0.88617157005822
H          -1.50413208839506    0.46827388303109   -1.66155825698373
H          -2.10896765248828   -0.66112085871157    0.29029895926724
H          -1.56803029975524    1.31033941933748   -0.36777091365665
N           0.62405698030264   -1.31297090354977   -0.43554847427745
H           0.50427116229613   -1.01591990426083   -1.41889001538885
H           1.05616544705369   -2.23073315650922   -0.34111434097450
H           1.15610819509928   -0.56408319557437    0.08328847576081
H          -0.33108537737047   -1.36872881696110    0.03972920562865
