    26
        -50.44796710  Gyration_radius:  2.60769528654 Dipole_moment: 6.023
 S          -1.52106295130268    1.15041305456842    2.03564378953364
O          -2.65580798704899    1.57301167677985    1.25046815298495
O          -1.31891109440587   -0.27593805565811    2.11785375723453
O          -0.29025294634895    1.84727161601780    1.62322256595289
O          -1.80612142529842    1.64461877836054    3.52166050020222
H          -2.25524448823629    2.47387790969069    3.38740139096619
O           0.72196663478462   -1.63858650546514    1.27929058717315
H          -0.02869268229211   -1.26350486701890    1.80032458571076
O           1.51656473241765    1.06791290144953   -1.57252044064639
H           2.19826612204857    1.56270471947418   -2.02827149816697
O          -1.35201046657627    0.68431904723169   -0.87430490268869
H          -0.58876504011039    1.26308953330191   -0.96717076636095
H          -1.90100111661631    1.04063745340411   -0.14758171923250
O           1.73047562285570    0.60843006329973    0.95202712775121
H           0.90653569124561    1.17109873877074    1.32317434112414
H           1.40422560228179   -0.40760122459635    1.08622282650992
H           1.71449629100629    0.79980713365367   -0.04160090277230
O          -0.85370380291047   -1.90333066556197   -0.86058906878945
H          -1.63993942980890   -2.32467063297758   -0.50864433152670
H          -1.07214164895955   -0.93736870654438   -0.89621020713327
H           0.28930206564948   -1.87963061944686    0.42857526336335
N           1.39175878134467   -1.34890487232241   -2.64366086757482
H           1.45213310719316    0.16764192030139   -2.01662966425349
H           0.58549367375826   -1.73162906284390   -2.15524980286217
H           1.19288524125497   -1.38656044082381   -3.63533943237797
H           2.17955149409722   -1.95710890301763   -2.45809131412517
