    26
        -50.44796711  Gyration_radius:  2.60806640563 Dipole_moment: 6.028
 S          -2.41022572093284    1.39485885466894   -0.16338914694990
O          -2.06911650687176    2.29285492434422   -1.24050206785608
O          -2.45962452258843   -0.00411469656267   -0.51310287061146
O          -1.56398842464269    1.62621364716001    1.02017975487989
O          -3.88365502578490    1.79176188215025    0.28954333303845
H          -3.89232503527531    2.73779681828807    0.17838483262440
O          -0.98835227388096   -1.92363953645974    0.42332289379716
H          -1.73137447767098   -1.35733946855275    0.10257153339029
O           2.04251298956820    0.59658826756466    1.17945536818580
H           2.72617713436162    0.84831286693131    1.80112918462803
O           0.35292501963062    1.22775059630066   -1.18895432092662
H          -0.51071635306682    1.67866864323170   -1.27450813369890
H           0.73027228887206    1.48967058594886   -0.34332276596469
O           0.43768486261449   -1.34372509771286   -1.75897509190374
H          -0.35650902235080   -1.89071621469303   -0.33079261841270
H          -0.18493061758226   -1.47913435063812   -2.47562366908630
H           0.42270798741711   -0.36832792438276   -1.58434514145868
O          -0.25209804379127   -0.19027110962618    2.04386513949099
H          -0.87592070905220    0.59269818540889    1.68194561279431
H          -0.52548554732787   -1.02094936749087    1.41761360419879
H           0.67543439034911    0.10320182282608    1.76548630042485
N           2.92944220989203   -1.45481670556056   -0.23833249795544
H           2.16951337045500   -1.56850400178429   -0.90518505229134
H           2.40758454950344   -0.15626338103221    0.62106458007697
H           3.03328263553516   -2.32988605051160    0.26017097095863
H           3.77678485260025   -1.29268918980091   -0.76769973138786
