    26
        -50.46461163  Gyration_radius:  2.53481823324 Dipole_moment: 3.075
 S          -0.71798368121173    1.93499523733423   -0.41921740249580
O          -1.28112625483432    1.63422891188480    0.89115172591155
O           0.73059936822744    1.77447266237687   -0.43844348009712
O          -1.38536095667811    1.21639262080976   -1.48224039910539
O          -0.97358510038248    3.47743928574699   -0.67922013567222
H          -1.90605926245689    3.50703697959866   -0.86800698222445
O           1.18275562854195   -0.99619709045136    2.20497472909495
H           1.62225255100294   -1.33024235181186    2.98734338036227
O          -1.29400557073740   -1.40494098817036   -1.22346447532702
H          -1.47302887176054   -0.47013636475180   -1.47043258012057
O           0.92387257597707   -2.27127903916014   -2.85119547125909
H           0.86801101419463   -2.38468188411193   -3.80051903930952
H           0.01447591662418   -2.19370974010392   -2.53139988796758
O          -1.57713440702597   -1.00825863554237    1.38553243087355
H          -0.73277480705284   -1.17661114630763    1.82509515537791
H          -1.62945026466968   -0.03956601996578    1.28611088419177
H          -1.63848134012506   -1.48054652109251   -0.30600809281459
O           0.95970256894603    1.61411543071617    2.26291754570500
H           0.02275706832800    1.69091355501317    1.98568273301527
H           1.12463932954413   -0.00565642724630    2.31412810180608
H           1.43163987372828    1.92958789164970    1.48216755457933
N           1.17819562355865   -0.81124114579146   -0.50589738852538
H           1.83248243163544   -1.20987427460206   -1.17738818342302
H           0.20437721679765   -1.15608141656664   -0.77846670267949
H           1.37933271501536   -1.08112407095737    0.47225400616917
H           1.13389664479639    0.24096456163214   -0.56545801608615
