    26
        -50.44796707  Gyration_radius:  2.60807217147 Dipole_moment: 6.028
 S          -0.57754615231610    2.72762235408353   -0.08201606303225
O          -1.14166334562598    1.99028172352216    1.02251274756114
O           0.75546465368311    3.23904611710352    0.12855434220679
O          -0.67165570565116    1.96955270978982   -1.34175614864632
O          -1.50954248380765    4.00152185388424   -0.28769564326742
H          -0.94240560923822    4.60594913187824   -0.75717774713321
O          -1.86838780141948   -0.49908225814059    1.05916666759275
H          -1.80919456406726    0.48158121917972    1.16116443644603
O           0.80830315752366   -1.45290790398614   -1.77596617113595
H           0.96878051341040   -1.95553312761919   -2.57525049719036
O           1.58372106310307    0.72573306966093    0.09940381534306
H           1.43411933313191    0.41691765111310   -0.79964694844522
H           1.36722238375498    1.67923098809251    0.11942890677906
O          -1.48876652833271   -0.35394154089228   -1.39198171969736
H          -1.71498664722087   -0.51606541199121   -0.35309583574443
H          -1.21900084014487    0.67553655560188   -1.41636122818459
H          -0.61633284019565   -0.82812072604171   -1.58675593130139
O           0.60443600387635   -0.77907351320855    2.02863659619999
H           0.59821509776108   -0.23243048864146    2.81649700395115
H          -1.02165119066289   -0.80458626024155    1.45733802331019
H           1.01104593017123   -0.21271676220766    1.32443060377520
N           1.09824212294749   -3.07682130292606    0.29367737914533
H           0.96081844717975   -2.07116160990792   -0.99723309156173
H           0.99093017756914   -2.42281363066501    1.06561713582634
H           0.39289155808905   -3.79525798704151    0.40015203144030
H           2.00694324695545   -3.51246085985605    0.38835733568945
