    26
        -50.46461183  Gyration_radius:  2.53604384755 Dipole_moment: 3.115
 S          -0.55672117549576    1.65106492266216    1.18999395984317
O           0.35882302207151    0.90259443734072    2.04215681228259
O           0.04034104542262    1.96915168840954   -0.10107179521728
O          -1.85003643083434    1.01313643634266    1.07906743370944
O          -0.79632931033525    3.04879411597026    1.89808150869567
H          -1.37952716589839    2.82389552588624    2.61598138774624
O          -1.75531089827494   -1.43010123557234    0.09358905996869
H          -1.99226605573754   -0.57138323361658    0.50972926761030
O           2.42421374651640   -1.02933591135555   -0.54571925026926
H           3.29487466927420   -1.37648569250643   -0.74132147923840
O          -2.30837801832479   -1.18460038030288   -2.72563279733130
H          -3.19070390525174   -1.13575218491112   -3.09470657392912
H          -2.41217043901304   -1.46256243677737   -1.80512354689588
O           0.49430276601599   -1.73655995265433    1.46717550758307
H           0.44835912148753   -0.83889463571263    1.84538460052365
H          -1.08346471877650   -1.81311408956237    0.70049598992427
H           1.24211255294534   -1.71940054900701    0.85464626886871
O           2.55992993392110    1.29242365814801    0.66190156903748
H           1.90719515811496    1.12787760077417    1.37444056693856
H           2.56537343539718   -0.15905695104689   -0.07763912724406
H           2.08904876941459    1.91048008290478    0.08942258497093
N          -0.00191836164738   -0.25420232148283   -1.49465169100254
H          -0.34888925346598   -0.26383381697811   -2.45240665992376
H          -0.69163597959335   -0.82124637129553   -0.90796744455007
H           0.94574530313564   -0.65730930486377   -1.39918390836825
H          -0.00296782100664    0.71442059919135   -1.07664224363380
