    26
        -50.45549985  Gyration_radius:  2.44727878977 Dipole_moment: 8.161
 S          -0.04063018618992    2.15481556694913    0.66713317177682
O          -0.02017518873638    1.40263669975524    1.94832621797782
O          -0.65628166464045    1.30611588178610   -0.36152586550723
O          -0.58944513797696    3.45828636813616    0.78567388498658
O           1.47284407522030    2.27698507545574    0.22784662803142
H           1.70327304744291    1.42583896554176   -0.18931678248042
O          -1.02104878670848   -2.18508874948347    0.60766479465029
H          -1.57741292381644   -2.95881346670077    0.70207297865547
O           2.19715674641926   -0.13432865837076   -0.76167261210324
H           2.92750997684291   -0.09295886558053   -1.38007574688413
O          -1.17593163083332    0.50027502821447   -2.83193626016479
H          -0.91715206096453    1.18976156015588   -3.44465051464127
H          -1.10051918760078    0.88976122290472   -1.93795930047786
O           0.29119878373667   -1.50777557805667   -1.80717244958276
H          -0.24885644353144   -1.79831077821067   -1.05522843371030
H          -0.26953960654864   -0.87337638663655   -2.30097187004944
H           1.45330211887205   -0.63903256940155   -1.22929550067796
O          -2.33043972735205    0.00038586030369    1.13374339339906
H          -2.06738678672496    0.39603967041214    1.97041066958935
H          -1.84350413290695    0.53589360518045    0.46436409437739
H          -1.60712453177722   -1.39107220205189    0.77873428859412
N           1.10378432815758   -0.82141973041189    1.61594390036976
H           0.37111594889739   -1.49543548989594    1.32439678890599
H           1.59320570037008   -1.13964402839719    2.44442695482693
H           1.75178229738187   -0.67325784485099    0.82620000627564
H           0.60027497296567    0.17371883325693    1.80286756386700
