    26
        -50.44057488  Gyration_radius:  2.46888636987 Dipole_moment: 6.446
 S          -0.39526015960079    1.44307451351322    1.24318085441938
O          -1.44163697699488    1.50562620884942    0.19434150079018
O          -0.94056097876413    1.00758085455185    2.50337391096596
O           0.73567900401828    0.67684563100224    0.78633629886292
O           0.09062056008469    2.93294245062734    1.42330023023183
H          -0.69044392813023    3.39637637381858    1.70946774249992
O          -0.39905076996408   -2.37405172188847    0.01554110267760
H          -1.02664281703842   -3.09699838291155    0.06455112309211
O           0.79386820235153    0.13032197494982   -2.71042979858913
H           0.99906624194644   -0.24487551517429   -3.56769641478372
O          -0.07102874052022    2.83239177550712   -1.86734806881861
H           0.42394526473450    2.07777715729558   -2.20135826710949
H          -0.56994145492639    2.51396992504731   -1.10554652211556
O          -1.30387242640037   -0.40089036264998   -1.33904519800322
H          -0.95591691707023   -1.18679510981662   -0.77935983024926
H          -1.41538544778994    0.44704368829266   -0.66366315938555
H          -0.54503877598610   -0.14358343941557   -1.97051232056076
O           2.01658459146408   -1.06694880626724   -0.75764256118014
H           1.42792738768071   -1.80428325903926   -0.55285687486662
H           1.40889063739138   -0.28823605553068   -2.04052148152313
H           1.76761292237484   -0.37301944138789   -0.11814174217945
N           0.02012050466627   -1.60682929003940    2.44431202368572
H          -0.38733779081265   -0.66892336539237    2.51185433590600
H          -0.23260565274250   -2.06515967889104    0.98705354545197
H           1.01821825308233   -1.48827009168819    2.56896936774679
H          -0.32781075305479   -2.15508601336208    3.22184022303498
