    26
        -50.46126938  Gyration_radius:  2.53143400943 Dipole_moment: 6.044
 S           0.88614663189327    1.91795202974315    0.88562830495090
O           1.90756378870169    0.88198826264846    0.93318592940488
O           0.76331371874593    2.56238157980925   -0.40299486492682
O          -0.39704096435430    1.44522366254875    1.39269106647350
O           1.37874907756395    3.03768415684176    1.90198447016171
H           0.81019904511331    3.77466423730580    1.70162960179494
O          -2.90753503612542   -1.63133475836801    0.08271713316943
H          -3.59665437290164   -1.85700456329373   -0.54286711192361
O           0.28821983554388   -0.78334963807932   -2.04161960593757
H           0.26306756362097   -1.00158331255531   -2.97403643014355
O           0.50558417972240   -0.88626659907537    2.19255890955983
H           1.27311542667786   -0.38447065883930    1.83647990740437
H          -0.15869515453231   -0.17411785583669    2.23327818555967
O           2.25060322378395    0.85287539190928   -1.69095400653615
H           2.55389136587232    0.63630758546649   -0.79444350963189
H           1.07636872323091   -0.16588670478252   -1.92625764241867
H           1.72652851315707    1.66247054105927   -1.51649150410161
O          -1.81990525398764    0.61506206696011   -0.69202724825160
H          -1.11244285232679    0.34070537526175   -1.29180276255928
H          -2.62316531706468   -0.70226523317446   -0.14254870799570
H          -1.36958323246286    1.03800780518338    0.06781251047605
N          -0.33147874325085   -2.26178858614981    0.14898941733535
H          -0.02868164490407   -3.22919280455431    0.16094008518557
H           0.00451282652613   -1.77032945997859   -0.70576953216438
H          -1.38186432831297   -2.18433413563311    0.16092560917745
H           0.03918298001685   -1.73339837443937    1.02299180585812
