    26
        -50.45549985  Gyration_radius:  2.44718798758 Dipole_moment: 8.160
 S          -1.01513147472142    1.40554680844105    1.44267934701389
O           0.18608344116992    2.16771154062767    1.01359796716022
O          -0.72528745847004   -0.02902226484379    1.31866962767577
O          -1.52323490274924    1.81463693516313    2.70318371798636
O          -2.10849156613477    1.68714832708758    0.33667207800947
H          -1.90168579308891    1.09066651323167   -0.40704330184018
O          -1.45169568991478    0.18248925097237   -1.81306689534620
H          -2.19588520957778   -0.02402918340892   -2.37970237122499
O           2.28775306127822   -0.78438017940075   -0.57988451118457
H           3.12754115644954   -1.24056106905310   -0.64170095905180
O          -1.32309118528844   -2.59871678972169    1.07310972171946
H          -2.24908810537798   -2.72421155930844    1.28414499894163
H          -1.11384879647798   -1.67337217825002    1.31096985264350
O          -0.17640235053018   -1.98641930952269   -1.28205071356044
H           0.70945747702828   -1.69563727959859   -1.01325966513332
H          -0.58516076524798   -2.35839301202524   -0.47261017523632
H          -1.00801560384131   -0.70040771536646   -1.58880760517852
O           1.81632322038531    0.01967760130082    1.84906769644111
H           2.16101085743903   -0.55207758722096    0.38606066336188
H           1.89450788283232    0.97385980457184    1.94437530349920
H           0.84341785801626   -0.12472985694777    1.78180275461160
N           0.88740010263627    1.43643098311537   -1.28702064607970
H           1.31386811621810    2.18456592842637   -1.82145015671532
H           1.53522896658489    0.63476235922930   -1.17067465983858
H           0.59529695901024    1.79481004743450   -0.25482997606674
H           0.01912980237232    1.09965189506797   -1.73223209260815
