    26
        -50.45549983  Gyration_radius:  2.44721736444 Dipole_moment: 8.162
 S           1.53584709606597    0.95087030899558    1.35098529433330
O           0.80413571637311    1.26717071136884    0.11731464389706
O           1.96857813013153   -0.46929864142885    1.29125946327416
O           2.58512140451930    1.84798084676546    1.68038311965304
O           0.44008964743040    1.00845099135864    2.48868886723487
H          -0.38920684338397    0.69427567351645    2.08229738717111
O          -1.82705231268223   -0.03471239552626    1.44464618155517
H          -2.62590637720950    0.27235501753643    1.87488644083460
O          -0.11846242720147   -1.64751072201928   -1.85939761907651
H          -0.12609075294257   -2.09974746762834   -2.70351008152086
O          -0.88833185636848    2.62668238628650   -1.40225200126511
H          -1.08474212128730    3.46251143359116   -0.97731917703977
H          -0.16137651438411    2.22450214687193   -0.88611611105031
O          -2.08767887584538    0.23816915198615   -1.09890825285275
H          -1.95139058104280    0.13523854903546    0.45348856897168
H          -1.76182640090679    1.13658555263480   -1.31663436829926
H          -1.43825173242358   -0.37184660928097   -1.48316097910795
O           2.07640352210229   -0.29178691182092   -1.52416243618823
H           0.72989366247863   -1.11589843932228   -1.82950431364273
H           1.63424871795380    0.43262548389885   -1.02255811226680
H           2.66077502155350   -0.69060110706454   -0.87211166014809
N          -0.01311579987883   -1.94903833306264    0.84044996627958
H          -0.11595059991542   -2.01988949214192   -0.18933548520602
H           0.07649951817525   -2.86310603522086    1.26898976009787
H           0.89850064119813   -1.31408395704915    1.05183643374933
H          -0.82070986251032   -1.42989813228132    1.21974449061293
