    26
        -50.45549986  Gyration_radius:  2.44718551225 Dipole_moment: 8.161
 S           1.32831187876055   -1.81182338183925   -0.20133939551749
O          -0.07078281651988   -1.49901016464015    0.11817557022815
O           2.20065063814328   -0.82521069547626    0.48679508181220
O           1.71429817332834   -3.15933130347698    0.02138205653673
O           1.46532506804377   -1.49046887630871   -1.74276360206121
H           0.87484702001290   -0.73331842497005   -1.91519078303072
O          -0.55540327004911    1.75951117687701    1.66772241754001
H          -0.92265210477308    2.28479341290447    2.37934417104355
O          -0.01710377617426    0.72235300272710   -2.21477881539913
H          -0.31487443514984    0.79916159229493   -3.12195645568423
O          -2.69435896668098   -1.52708787264053   -0.25230878616133
H          -2.91046032741632   -2.20343511939360   -0.89544549760104
H          -1.74643371443077   -1.64548831083947   -0.04251247828111
O           0.25741426980801   -0.56122929106553    2.51734730012955
H           1.21668974519153   -0.63248678507579    2.53695452204159
H          -0.31273943578951    0.87276488387215    2.06506329391034
H           0.01009976840373   -1.02966050080440    1.68589866785985
O          -2.02628103821098    1.04911582580284   -0.64352384660109
H          -2.41805498430591    0.16146904704428   -0.50481730037217
H          -1.63765575162211    1.29576028686546    0.21068440746743
H          -0.84267595839689    0.80749477866878   -1.63353600367978
N           1.48765688124563    1.51068011182162   -0.10895496227238
H           1.05051730860071    1.42296309735027   -1.03995224981579
H           1.83996640127485    0.47392773207594    0.17401265425544
H           2.26229326440106    2.16411171781062   -0.12142641034058
H           0.76140616230553    1.79444407041446    0.57512642399280
