    26
        -50.47166902  Gyration_radius:  2.41846357053 Dipole_moment: 3.987
 S           0.38978906128277   -0.22006131307967   -0.81378147529222
O           0.11807318047566   -1.46158119467929   -1.49568130876246
O           1.72700733621722   -0.16874697424554   -0.22143454448853
O           0.37309931011807    0.95830316829051   -1.83646067122226
O          -0.63848042174229    0.09439884623235    0.18600938636285
O          -2.50816585384401   -1.24076431951542   -1.40312788583752
H          -2.53947420284343   -0.78049260609569   -0.55838580953204
H          -1.58072527709613   -1.54867289162238   -1.47226728069895
O           1.14842865822141   -2.49316396642292    1.02147787638926
H           1.54353090744168   -1.75877008343279    0.52425550738707
H           0.63918732254417   -2.98072490587657    0.36948219251516
O          -0.08837790414200   -0.73376402804700    2.68225798812987
H           0.35874487333161   -1.55089047018743    2.39062897288524
H          -0.57557251929106   -0.45174218842100    1.88498784139056
O          -0.02972102604557    2.62328478351627    0.60842335035412
H          -0.43761386081341    1.74492943616435    0.44628047850570
H           0.27172513390487    2.91718484563547   -0.25453304520324
O          -1.82654892607310    0.61311481904296   -3.14576300994399
H          -2.26265300423660   -0.04825660174974   -2.54819142446846
H          -0.46820848187999    0.89031674682943   -2.37719429152494
H          -1.63682076875770    0.14580383158667   -3.96234110540800
N           1.63584603708450    1.11329163763310    2.03003751827150
H           1.07167899895979    1.93797766103057    1.72179516752472
H           2.45505251972827    1.36498856674039    2.57107098586534
H           0.98801066391963    0.42136424971011    2.53090325017926
H           1.87218822348611    0.61267295102933    1.12155134665026
