    26
        -50.45549985  Gyration_radius:  2.44719355439 Dipole_moment: 8.160
 S          -0.65883376538154    2.03576943950616   -0.71344000656288
O           0.55157269534290    1.20374338731075   -0.71607330863928
O          -1.31179044435570    1.91338282809491    0.61569189114022
O          -0.47152576642208    3.37981831776893   -1.12918046701418
O          -1.63559271054375    1.31960958380489   -1.72883925478932
H          -1.45992700982963    0.36363484136709   -1.64562019549687
O          -1.30445314943145   -1.34308975543038   -1.38658175888047
H          -1.53812175351893   -1.86185680790438   -2.15718232866517
O           0.77762138958240   -1.11103840715010    2.08474819988215
H           1.28100263951895   -1.46918205979385    2.81651302572498
O           2.51439827410862   -0.19637470544127   -1.81512802840378
H           2.56522193719716    0.01804311841222   -2.74742626497174
H           1.88049475861935    0.43824064985997   -1.42518631087152
O           1.02627909423563   -2.05971841906234   -0.57010275244137
H          -0.36476732463856   -1.62029452470876   -1.12814103395510
H           1.67271321585004   -1.49619215384749   -1.04465460200134
H           1.06535273845515   -1.77299138046052    0.35608110643456
O           1.21337319190821    1.43619266634571    1.78421864772023
H           0.46166221441462    1.97391931357986    2.05149121822890
H           1.03591145312884   -0.14648133450344    2.00729124175005
H           1.13428912827639    1.40417563329283    0.80205692259381
N          -1.70614678808987   -0.50982731801840    1.15602195343879
H          -1.55109738272906    0.58983123673967    0.94173729902894
H          -0.85362469910894   -0.86166685739048    1.63068241374312
H          -2.53368206234305   -0.65373515239346    1.72318372977776
H          -1.79032987424321   -0.97391212998186    0.23783867322891
