    26
        -50.45549977  Gyration_radius:  2.4473243152 Dipole_moment: 8.153
 S          -0.15990341622911    1.61281664348033    1.57030292089409
O          -0.30422234929024    1.46869305853741    0.11575176081361
O           1.02641654294270    0.83120783935674    2.00573436245278
O          -0.16392547324895    2.94826398772109    2.05084882813710
O          -1.40810307326278    0.85098080171755    2.17047350288652
H          -1.58656759831979    0.10661416152248    1.56591987978508
O           1.74054422926258   -1.17594397303457   -1.33166190575686
H           2.38148749217927   -1.45653723189021   -1.98555225601681
O          -1.80901267186912   -1.33015746210752    0.62071441016301
H          -2.71030228645035   -1.65411987073077    0.63637545151678
O          -1.58391503286231    1.51099614841461   -2.20478439432916
H          -1.08636239356989    1.64040354022835   -1.37276852433095
H          -2.40927570596066    1.98528242932026   -2.09724739386811
O          -1.04595385345702   -1.09718125077967   -1.82418327963383
H          -0.07652569219537   -1.10558741306882   -1.78473359880594
H          -1.56569925303244   -1.20554384513164   -0.35482918741277
H          -1.28706079778629   -0.19019057819480   -2.10672899200984
O           2.20360543332748    1.25314616159182   -0.52391225534750
H           2.55217352875241    1.28405896217835    0.37236707034367
H           1.95758950482939   -0.22327717410314   -1.11118760767559
H           1.24931423403033    1.47043100643319   -0.40568855762310
N           0.82504823911272   -1.54231698527081    1.20188125735938
H           0.94409137652566   -0.48544069751929    1.58594357538401
H           1.24736941804574   -1.58331319511448    0.25529394785885
H           1.25986935199744   -2.20630605954206    1.83216430847809
H          -0.19067973347114   -1.70697897401380    1.11950666673734
