    26
        -50.45549980  Gyration_radius:  2.44718134655 Dipole_moment: 8.157
 S          -1.87835860829110    1.18006166858176    0.41166652389478
O          -2.30251921886020   -0.22523099967783    0.64183620871900
O          -0.76199639777399    1.17945252887470   -0.54284802104454
O          -2.95279418373322    2.04859443291801    0.08675249575027
O          -1.23452854435817    1.65288984275179    1.77555233929063
H          -0.32392101014378    1.30309341262154    1.78006607707451
O           1.22644001012293    0.53737481380451    1.90541481361769
H           1.83939372809361    1.02037873825123    2.46085437933069
O           0.69898964772769   -2.10690800102279   -1.12156378399010
H           0.97958568394734   -2.78578035387157   -1.73592492362842
O           1.38018839610454    2.15852135561383   -1.75762847014781
H           0.51130126494382    1.87085124074855   -1.41304123735821
H           1.44381520329138    3.09551186975942   -1.56840394282670
O          -1.43966862552396   -0.88740357127424   -1.96168415025926
H          -2.22182547451426   -1.12220554178920   -1.45294978076927
H          -1.17534785944438   -0.01541968972397   -1.58530380457071
H          -0.09376574629696   -1.65744439644099   -1.53733528666603
O           2.34259523089414    0.06904330941130   -0.36345933979986
H           1.68407492631467    0.41738792427743    1.00948201707563
H           1.84675599211448   -0.67708308057785   -0.73616169489799
H           2.13359789376296    0.83437141357711   -0.93902897294847
N          -0.32493108011133   -1.60810496504451    1.34697001303136
H           0.11967143972155   -1.97074965589313    0.48274286628790
H           0.31903765419930   -0.93732606890002    1.79521774447769
H          -1.23732140053260   -1.01450335948883    1.04053467291126
H          -0.57846893164791   -2.35937287748788    1.97824325744476
