    26
        -50.45549977  Gyration_radius:  2.44720803138 Dipole_moment: 8.157
 S           0.47790357173497   -2.20300396818195    0.10197260147035
O          -0.18389916341711   -1.25813378454968   -0.80715633401677
O           0.07570573839745   -1.87745664404678    1.49479359316336
O           0.31662656208519   -3.57420053182316   -0.22697654693369
O           2.01200542478006   -1.83341774166241    0.01105421437953
H           2.04990308614031   -0.86856142379312   -0.12762720659607
O           2.15632429182394    0.86103245696547   -0.18031072409009
H           2.95530119410583    1.17495083630106   -0.60531116106287
O          -1.68763949654442    1.60850553811214    0.86415967954902
H          -2.45096557687248    2.16759186086572    1.01232274687789
O          -0.52627420456528    0.09453351098389   -3.06020430268330
H          -0.48022651790091   -0.51189450559618   -2.29426908958832
H           0.01016842425484   -0.30378931490793   -3.74677508033255
O           0.12505801631266    1.99711646125133   -1.27370772755959
H          -0.58644732500015    1.92000921684054   -0.61840903343736
H           1.38171156814317    1.29246462857767   -0.67074621734951
H          -0.14566410563638    1.42336711765565   -2.02082381426181
O          -2.37859563948418   -0.87679901270723    0.52794722347486
H          -1.65816544197794   -1.06287476251405   -0.11878007091709
H          -2.14926898654041   -1.42842341434035    1.28219181193889
H          -2.03943592029107    0.68552792177270    0.69770920363555
N           0.55314692986494    0.54340688660070    1.97606526588850
H           0.33326653575955   -0.55125203577137    1.79688599575849
H           0.79473928085780    0.70898490335243    2.94632388282512
H           1.33168452381096    0.78895989879678    1.34424730221923
H          -0.28696276984113    1.08335594181779    1.69542379764937
