    26
        -50.45549980  Gyration_radius:  2.4471977312 Dipole_moment: 8.157
 S          -0.66215312653646    0.49490731198406    2.09960386975200
O          -1.44520355371085   -0.72536761268874    1.77490603869245
O          -0.34944633133808    1.19501328802548    0.84684799144651
O          -1.25672996147050    1.29592777893470    3.10915031218133
O           0.73486587756290   -0.02936040307677    2.62097907462370
H           1.25836821150592   -0.24052424021332    1.82542213790210
O           2.13983489149612   -0.80486529019768    0.44326224595865
H           3.08915416870878   -0.78326393017349    0.56925571854340
O          -0.97202025066603   -0.77459898780506   -2.15385649544848
H          -1.37924051321893   -0.85239733461803   -3.01713919951491
O           0.99062259215788    2.85316248337543   -0.72733445166973
H           0.41456150474564    2.36058315512784   -0.10923100453180
H           1.53304040494200    3.42684023478746   -0.18466002349674
O          -2.47376096816016    0.57104567447328   -0.51038659970432
H          -1.71138312027976    0.98130270544496   -0.03882881023172
H          -1.58519206990868   -0.20797305812529   -1.60039858990262
H          -2.87755755269685    0.01300672201657    0.16139629545699
O           1.55671940955132    0.42550897689556   -1.73814611694574
H           1.42057280304252    1.36612414784922   -1.49870764222848
H           1.94929839649925   -0.26977492830143   -0.39580835325355
H           0.67943638517390    0.09267323203525   -1.98540039575329
N          -0.20244817802848   -2.11124216066520    0.08518769111147
H           0.79193306610199   -1.87639226039703    0.23233153387226
H          -0.48824469570264   -1.77820142437962   -0.85471602120233
H          -0.37044405136054   -3.10470492386581    0.19473296706230
H          -0.78458333840682   -1.51742913643915    0.85153781727954
