    26
        -50.46328763  Gyration_radius:  2.42778156175 Dipole_moment: 7.583
 S          -0.47498631630097    2.01071895465258   -0.53122404825817
O           0.49689631236504    1.62496690525206    0.50806181781001
O          -1.37265693981682    0.84473279405312   -0.75691547466002
O          -1.17481115726330    3.21365973811870   -0.24948164093095
O           0.33208550404923    2.17920628035917   -1.85697619465284
H           0.83017526026420    1.34447034660778   -1.99694089757175
O          -0.12156293063148   -2.44105258121572    0.38386993008670
H          -0.09033980899832   -3.39663918747633    0.33254300509681
O           1.78274658397938   -0.03426421990855   -2.22138516069037
H           2.61349562213440    0.24243121840647   -2.61036592722428
O          -0.23653321946755    1.15866412867698    2.94775641797899
H           0.05456874811655    1.54403948137080    2.08298104715938
H           0.56903512164574    0.94285011100297    3.42139072125573
O          -0.61331263075749   -1.39527001784470   -1.93676621100215
H          -1.01493919485131   -0.55251432955176   -1.62903976763800
H           0.22023431848513   -1.12878327135949   -2.34748775541523
H          -0.31238716171436   -2.11264180166533   -0.54848696992606
O           1.96566838411836   -0.53740240405645    0.32168705782456
H           1.47043593079537    0.29921741987712    0.48631979329115
H           1.34312117803959   -1.25895660518256    0.49488107756612
H           1.97776649816646   -0.28076508039967   -1.27069723587047
N          -1.66768882935924   -0.47178581658005    1.41848099970787
H          -1.15935139128316   -1.35327914063281    1.21045775101303
H          -1.61705522237489    0.12696566370910    0.50974863937549
H          -2.63347825711933   -0.64630658942874    1.67283792849135
H          -1.16712639222589    0.07773801320677    2.16475109717182
