    26
        -50.46832748  Gyration_radius:  2.41205217071 Dipole_moment: 5.204
 S          -0.17609051334485    1.23875478435476   -0.40509008895833
O           0.40563163985323    0.97809644056614   -1.72438791799868
O          -0.46123053798478   -0.23089862215208    0.13603910785996
O           0.78341909382421    1.82675044055150    0.51078449864752
O          -1.44777816871328    1.91725855585818   -0.44960433587548
O          -1.71361245522440   -0.51139925589862   -2.34158767948078
H          -0.96079530637770    0.10721987906027   -2.29408354280899
H          -2.37498474963635   -0.12251580391616   -1.76483309483317
O          -0.24412992672507   -2.67945176171417   -1.72294454314131
H          -0.27299723816888   -3.13388401530090   -2.56710574906875
H          -0.87462932342803   -1.92634235225451   -1.81012005286544
O          -1.33790032597457    2.47615596837885    2.14997468146175
H          -1.56940589033838    2.35594895563562    1.20468416304218
H          -0.48263339056391    2.91662813634130    2.11923772533792
O           2.10403840495433   -0.23938764742287    1.42901976494437
H           1.74770281038613    0.63866449934245    1.15342607167019
H           1.50170334967825   -0.53503460276380    2.11873937029012
O          -0.67683287170842    0.00202703537797    2.73261298601621
H          -1.44636525476746   -0.42980800872930    3.10882540416581
H          -0.56688724758023   -0.20720660382359    1.11909581608550
H          -0.91460930377564    0.96642041775322    2.65360177950597
N           1.82592194143756   -1.10328509877519   -1.07796899951868
H           1.98013916094633   -0.93458162996874   -0.04495065516983
H           1.37305235839718   -0.21119018216983   -1.44306090861728
H           2.69764964686302   -1.30743084555422   -1.55541956034815
H           1.10162410797835   -1.85150868279264   -1.23488422034574
