    26
        -50.47166909  Gyration_radius:  2.4183266668 Dipole_moment: 3.983
 S           0.10143347535283    0.41185931936998   -0.82681405552992
O          -1.01589350109144    0.71838221058775   -1.68571072737831
O          -0.24065161704931   -0.60031937486676    0.18041232069526
O           1.26527825305501   -0.19440688483869   -1.67102787567221
O           0.68696733841282    1.59671852012316   -0.19830566038576
O          -2.05855784323308   -1.70312610549952   -1.63085302099956
H          -1.78790709343654   -1.90708831512577   -0.72996838339298
H          -1.88623435049945   -0.74277564646919   -1.71937001039819
O           2.19558858905009   -1.21662966353725    0.97413194457850
H           1.26015107556500   -1.17713929016177    0.67821695672950
H           2.71151596308715   -1.12326409748682    0.16973943880800
O          -1.05332431291257    0.37830001953819    2.54705333748068
H          -0.92322397568210   -0.21800096497793    1.78545543765088
H          -1.51934938627354    1.14049623691091    2.15394352531301
O          -1.78604596908157    2.21745254878073    0.68585955165279
H          -2.35957521769584    1.96589729569656   -0.04204192372382
H          -0.89151057392393    2.20425362628438    0.30856284318110
O           0.12124527591252   -2.03909900706346   -3.07071091750767
H           0.88935576007053   -0.93156769855929   -2.23695279742541
H          -0.74296621449130   -2.09067575101235   -2.58572953784762
H          -0.08515213287126   -1.69201071897275   -3.94137998650551
N           1.45372231151414    1.01905452429386    2.20990460443305
H           1.25159998570761    1.42094368363291    1.24578913334572
H           1.95483556074878    0.12392964882537    2.00741997997485
H           1.98053239998162    1.65034563831299    2.80241733402572
H           0.47816620979754    0.78847026632673    2.58995848885506
