    26
        -50.46328768  Gyration_radius:  2.42782928842 Dipole_moment: 7.582
 S           0.63626725770713    2.02851173882367    0.17440568830627
O          -0.74268577304387    1.60478578475624   -0.12976574401771
O           1.53556383957584    0.88855196448426   -0.15423834835196
O           1.01776438214836    3.24484722528486   -0.45102330503957
O           0.72104369244680    2.19413618659188    1.72441143433535
H           0.41480836319517    1.34908535015964    2.11998278242152
O          -0.05096105554539   -2.44178507406734   -0.39447721853477
H          -0.02124328560266   -3.39712147553109   -0.33797862691498
O          -0.20184848996168   -0.05025447503436    2.84142912757474
H          -0.67122464006406    0.21040618730288    3.63508755837762
O          -1.51281364344969    1.12643035457425   -2.55575750149630
H          -2.43852366381339    0.88465215609749   -2.48888396527669
H          -1.27174393250052    1.51519476075285   -1.67715428385871
O          -1.78409147590370   -0.59052834528015    0.85190514296063
H          -0.89601143896861   -0.31350032749329    2.16949505013267
H          -1.49388364043044    0.25582240286658    0.43745270742771
H          -1.35110291668070   -1.29867133744069    0.35268483537506
O           1.64359788513689   -1.35507798645536    1.23908871659758
H           0.62681661413156   -2.09708810438544    0.26529220575321
H           1.77566739517785   -0.50640444071180    0.76098069069729
H           1.18460303008793   -1.10427468845370    2.05204128735385
N           0.57872485296798   -0.44777513229678   -2.11680095508994
H           0.30327003747969   -1.33900292449056   -1.66003970512179
H           1.03675970845014    0.16103351743245   -1.33812383307666
H           1.23343870677281   -0.60137790750460   -2.87555290642033
H          -0.27219179928839    0.07940460000649   -2.44446083411528
