    26
        -50.46328768  Gyration_radius:  2.42780329727 Dipole_moment: 7.582
 S          -0.46556704657652   -1.75972560511678    1.11235961519910
O           0.26754101635755   -1.74508239147713   -0.16665588531628
O          -1.21484539624349   -0.47713576417645    1.21134989761777
O          -1.28416670568636   -2.90537264289930    1.29556174749916
O           0.60879512301720   -1.70428792846547    2.24366149608512
H           1.17622276245755   -0.92373034899810    2.06158370509341
O           2.23815984688954    0.34887851641631    1.72764646891134
H           3.11666265427853    0.07681201113956    1.99658190555897
O          -0.05473923454369    2.27881775428479   -0.96200777393975
H           0.04651785845142    3.20921436816879   -1.16412937077909
O          -0.96857433618175   -1.78458246399136   -2.44212200526324
H          -0.51364046087088   -1.98663688971845   -1.58576396929670
H          -0.27938393728094   -1.78082905391109   -3.10904190261674
O          -0.07117203978701    1.87420122046530    1.59868038631779
H           0.81554952954521    1.61706448876404    1.88516198274085
H          -0.04919822475496    2.20405840865254    0.04191636935558
H          -0.58328452158607    1.03517941183142    1.60525016542970
O           1.87115976707916    0.21463447224140   -0.84164788106360
H           2.22773778183340    0.34030758048382    0.72642349008395
H           1.30081505240215   -0.57387901341156   -0.68277681097441
H           1.27138504042267    0.94228789062118   -1.06291950155132
N          -1.91353249581729    0.31442197459226   -1.12062878465790
H          -1.31810363858840    1.15508634455388   -1.25294063764416
H          -1.62977646722303   -0.44962514447913   -1.78778848574522
H          -1.69531757521937   -0.05492130865422   -0.11924940613845
H          -2.89924438237138    0.53484411309539   -1.20850482490299
