    26
        -50.46328768  Gyration_radius:  2.42780943472 Dipole_moment: 7.582
 S           0.04490915344006   -1.39017402891024   -1.61742827720022
O          -1.05186728455612   -1.27670404378662   -0.63876554190168
O           1.25162943592826   -0.76587745232045   -1.00887154150977
O           0.26932727403872   -2.71293457358187   -2.08231748532071
O          -0.33596171591521   -0.47478269991314   -2.82329538486763
H          -0.51965484324428    0.41810632390798   -2.45812034753882
O           0.66179837934850    1.54809683004451    1.81293328583804
H           0.90976514712960    2.29498596265038    2.35828692535555
O          -0.94381166197946    1.94135146721245   -1.85920763433509
H          -1.65969864783588    2.28028995608960   -2.39845554361262
O          -0.99556064862687   -2.54472088546214    1.61870115823808
H          -1.81520774743623   -2.31733699899788    2.06167750150549
H          -1.10429432325691   -2.24555211061027    0.68070531353422
O           1.52871284945269    1.83295460921406   -0.61367304862565
H           0.81988192029094    2.19244589591859   -1.16392862832140
H           1.02897092751377    1.73313026244754    0.89401529834983
H           1.57161078435596    0.88236787710264   -0.86027513023946
O          -1.74464587910799    1.01260324686718    0.43210234599798
H          -1.57139315204262    0.10618920275480    0.08471427940417
H          -1.03192095870033    1.20264991322504    1.05985317123551
H          -1.34296165127769    1.68811247567106   -0.97649100596866
N           1.22116507016354   -1.08750565959954    1.53051956747660
H           1.06147915150994   -0.11931532838420    1.87096315370434
H           0.38757577855808   -1.69631951600403    1.73985576912950
H           1.28686036812609   -1.01843141328058    0.44530425343174
H           2.07329228412886   -1.48362931226039    1.91119755624000
