    26
        -50.46832748  Gyration_radius:  2.41191939591 Dipole_moment: 5.206
 S          -1.19215509290384   -0.55417459275385   -0.00042703284812
O          -2.39410442785167    0.08010272335001    0.48192534528603
O          -0.80108792940412   -1.73727368741364    0.74293454364814
O          -1.17868312588632   -0.78013200142168   -1.44804038253673
O          -0.01281672082910    0.49779990688558    0.18977666043663
O          -1.79982038326313   -0.51645832830094    3.00624378102142
H          -2.17969396985686   -0.19347603561879    2.16182967028488
H          -1.70194673655583   -1.46325658312515    2.86301420106349
O           1.81569729309018   -1.66040849234709    0.68902947681193
H           0.85342990529656   -1.86660751648602    0.76237364227795
H           1.98404087055305   -1.04898966514476    1.41273762693790
O           1.28613509896443    1.88488548032886   -2.23536929441450
H           0.34641658577193    1.95969417267964   -1.94629328583619
H           1.30578591273687    2.23352141705860   -3.12868898604977
O          -1.37536055047804    1.84676353273286   -1.83749069929900
H          -1.43809660840083    0.87322358904372   -1.83511912214954
H          -1.80523610443711    2.11254181324785   -1.02152730974861
O           0.65995488043043    0.35581240449332    2.71343633448889
H           0.72824550427065    1.20420959037561    3.15580026100077
H          -0.23342889675447   -0.01057519967188    2.95918391099152
H           0.27880660552012    0.50116789922324    1.13486874880243
N           1.40077554606041   -0.75494749869837   -1.78422394903438
H           1.73615924206321   -1.05049350527459   -0.82528481960769
H           1.83588177295765   -1.30639451749383   -2.51642203134963
H           0.34401379132719   -0.88559729637748   -1.76397316567354
H           1.53708750758520    0.27906237070525   -1.93029412449893
