    26
        -50.44334434  Gyration_radius:  2.72047697935 Dipole_moment: 4.394
 S          -1.23557430733461    0.90745405711438   -2.59305414104165
O          -0.21206450388626   -0.09239470026834   -2.95043062289454
O          -2.35655202239346    0.27367823594677   -1.92295644327242
O          -0.67712842625552    2.02252576034195   -1.86840339951865
O          -1.77660088957322    1.46569491631779   -3.96804846895592
H          -2.18992416304542    0.69749809209295   -4.35000154723043
O          -0.94495103537253    0.44157079089088    2.05940640440804
H          -1.32218948127870    0.82687755067474    2.85017611696533
O           0.61540214115320   -0.99170118395163   -0.81393856486217
H           0.34180092772872   -0.68970895318875   -1.80077196803960
O           3.06592228048563    0.15399354521651    1.20044535601903
H           2.44588246608784    0.82942752971231    0.88880238773694
H           3.55642697271026   -0.13774854095867    0.43019072207844
O          -1.69903054340153   -1.26493510932683    0.06979498030068
H          -2.10771122822122   -0.75198020497359   -0.67291165243430
H          -0.32717346320210   -1.26221196874916   -0.39589986531918
H          -1.68251021825789   -0.65661619920283    0.83196566308381
O           0.77538082442068    1.34780344140330    0.16827977663523
H           0.82970205148298   -0.08989680141841   -0.35890611011488
H           0.29476379763092    1.76338248149667   -0.59149783214326
H           0.11645575322491    1.26609631164629    0.88527776802412
N           0.96413473532957   -1.29333503271436    2.61911508060540
H          -0.24133824791678   -0.21901902607021    2.35164809829809
H           0.79850649534237   -2.16458601247505    2.13029773419779
H           1.79991494731871   -0.86817489191060    2.21598844370173
H           1.16845513739259   -1.51369407767080    3.58543207378931
