    26
        -50.44261687  Gyration_radius:  2.73462194613 Dipole_moment: 5.474
 S           0.02931618773711    2.95965881553868    0.67120380363728
O           0.37911113251127    2.87687760487182   -0.73753743738143
O          -1.29941180500448    2.35695568330663    0.90631955336300
O           1.02758809192767    2.44203902993231    1.56617351053060
O          -0.14771586448099    4.49691243024692    0.99271172714655
H          -0.63388788029249    4.80582317090089    0.23453496532022
O          -1.16257778757440   -1.60213466081837    1.45857914631145
H          -1.88364138239247   -2.17037567273453    1.73121018344046
O           0.61894588406181    0.36196058982540   -1.26932690761904
H           0.65027123857806    1.35218809721473   -1.24219514176526
O           0.30037092661985   -1.99958979485497   -2.67172339928502
H          -0.15577624285426   -1.87727989055884   -3.50500165305096
H           0.52812862063475   -1.11278804754627   -2.34933972969433
O          -1.67846483139049    0.22836845505332   -0.24899005090303
H          -1.55703987396193   -0.49006142757843    0.46983609255612
H          -1.59658098246142    1.18409164797428    0.26275695348862
H          -0.79330460715703    0.20686694375505   -0.80009985689982
O           1.41482065217675   -0.13655032184797    1.19664140823888
H           0.69317702145758   -0.51062472831300    1.71296668338934
H           1.08719916559453    0.07824663620556   -0.44428047995849
H           1.42938196110406    0.81859131261997    1.42692371281684
N           0.60193729459978   -2.93314958926248    0.07974097816269
H           1.45847672515824   -2.43664973459989    0.29969145113379
H           0.76341800778228   -3.91925508291754    0.23975418817133
H          -0.50198785693038   -2.17860912444811    0.93414618844696
H           0.42824619457394   -2.80151232196771   -0.91469586952427
