    26
        -50.44261687  Gyration_radius:  2.73463724519 Dipole_moment: 5.472
 S           0.16502933484227   -2.56898218028916    1.60758188402267
O           0.92620277091703   -2.66205524308614    0.34418913510631
O           0.73021018952651   -1.53775305675064    2.46250078033313
O          -1.24948202502240   -2.45026631717577    1.38314607036346
O           0.41617799345090   -3.94281969592524    2.34721136763277
H           1.31188607636787   -3.84470301786716    2.65486670447715
O           0.36265480511993    0.69947872478987    1.22755405562646
H           0.52056980028940   -0.03221400913052    1.87714381317243
O          -0.30454634718402   -0.06730673745547   -2.43938201099926
H          -0.02619075459660   -0.02972580155081   -3.35495825666079
O           0.98109077360458    3.19678359437768    0.21431611960586
H           0.78927810859355    2.41651663402806    0.75888366741604
H           1.85960267889794    3.48967072697021    0.45833953947125
O          -1.84054398302253   -0.22413318024305    0.10621612920746
H          -1.79978868512174   -1.05987794357948    0.62134539657615
H          -0.55369615689995    0.53535955542693    0.89040385354091
H          -1.67104292627342   -0.48052285411733   -0.80634751438019
O           1.49090133763740   -0.50484094523396   -0.67374904690753
H           0.81918810808997   -0.38652680173205   -1.43691633576614
H           1.13716254161998    0.10975719678503    0.09078985170350
H           1.30968726266681   -1.49520625148817   -0.26286457870731
N          -1.10196343098888    2.27062695626295   -1.61217194352913
H          -0.61393630718072    0.87024005885032   -2.17653141840951
H          -1.79489431095964    2.02151112115891   -0.91477861768084
H          -0.34096215227846    2.73715050924709   -1.12272890180631
H          -1.52259470214204    2.93983896779329   -2.24405972339064
