    26
        -50.44261663  Gyration_radius:  2.73442188325 Dipole_moment: 5.479
 S          -1.89105144035913    2.20775847111273   -0.87272341009501
O          -1.46699902069474    2.37268982592713    0.53353400140176
O          -0.74377073420417    2.30472143926300   -1.76043174222637
O          -2.69698057950845    1.03343166322601   -1.06405419878558
O          -2.79827110117108    3.46386364590451   -1.18347679676449
H          -2.15591028928079    4.16333193644099   -1.25222537000446
O          -0.23159928487715   -1.03980186798129    2.21325095134284
H          -0.02419012447471   -1.18273353748856    3.13722345418852
O           0.76062075895676    0.27855926996386   -1.21469668416270
H           0.29084998487452    1.05487710742528   -1.61321042984336
O           3.09110151910461   -1.10371364196165   -0.66509867722734
H           2.36227092320021   -0.59206962319851   -1.05142165373562
H           3.87021485210268   -0.54901579416279   -0.71628918900028
O          -1.34325695373516   -1.16517157927018   -0.54324239271546
H          -1.96680484696606   -0.45839043245557   -0.82097718128110
H           0.05430775083625   -0.40697046394130   -1.10647141843018
H          -1.42485079463156   -1.21238505594225    0.41510387442505
O           0.56279722177130    1.14105861244298    1.14223230116816
H          -0.31935431850223    1.74318490234882    0.93620485780757
H           0.23140762631935    0.31643372338022    1.64955644388628
H           0.80610022954121    0.78924869753853    0.19112848406056
N           1.06888942965074   -2.71152298943269    0.69688103987157
H           1.90810068473769   -2.26204309185572    0.33611575061867
H           0.43340499440620   -2.82495979888556   -0.08530793071310
H           1.32599567559516   -3.63335163423032    1.02578224926882
H           0.29697784730055   -1.72702977408129    1.67261369695201
