    26
        -50.44057489  Gyration_radius:  2.46889052676 Dipole_moment: 6.446
 S          -1.65058476432250    0.96967138943923    0.34561176594543
O          -2.17317188560303    0.79568254538589    1.67667077103752
O          -0.57346588727660    1.98843290554967    0.31685294933923
O          -1.21375757585314   -0.24832872460429   -0.28724959182023
O          -2.80496887233124    1.57201117753785   -0.54480295155307
H          -3.04643967804915    2.37581266495894   -0.09501596473893
O           1.49556115509838   -1.29413572143187    1.37271964046029
H           2.07544194348652   -1.33570215810946    2.13491027919244
O           1.71129841652283    0.10977450197588   -2.24786207971769
H           2.50945184195895   -0.09906673397713   -2.73481499249683
O          -0.22569131399288    2.33876040733080   -2.44827220020998
H           0.31008896784874    1.55644009768038   -2.61230166279555
H          -0.45660279358558    2.31807095254312   -1.51184268930007
O           1.64516575280813    0.95850081118643    0.16845737080324
H           1.73275148710233    0.72425380695439   -0.82061178478944
H           0.67905711170372    1.45392278063414    0.26174812251359
H           1.57430499737619    0.06576705190668    0.66844345656154
O           0.56163999240470   -1.98568560718617   -1.23331655256973
H           1.26053439370767   -0.75417054603418   -2.01847966470267
H           1.02091687428648   -2.09889211450202   -0.39167583239948
H          -0.24497045990272   -1.48631510821547   -1.00420730262091
N          -0.90532223998376   -1.61426733663747    2.26523323658352
H          -1.06121951890609   -1.89892425189356    3.22484735383927
H          -1.37534251640521   -0.71488705204656    2.12226778540602
H           0.53441649063620   -1.41999251010202    1.72952007508435
H          -1.37909190873037   -2.27673323834464    1.66317046294558
