    26
        -50.44261680  Gyration_radius:  2.73459733874 Dipole_moment: 5.473
 S          -1.57117144115468    1.86241877340842    1.80954137624218
O          -0.93139483303423    2.59241513337191    0.69511241438788
O          -2.54116664059686    0.90825097820507    1.29725991920281
O          -0.60807674848017    1.30549301372851    2.71918500729258
O          -2.39881843187027    2.95207959174738    2.60031574980872
H          -3.13870143515220    3.10242281921493    2.02016787956654
O          -1.18996495280174   -0.84312596314622   -0.03406362549698
H          -1.85825021064444   -0.32794027437696    0.48580589188448
O           2.20803846613525    0.65785899074431   -0.85677157692543
H           2.82802366056831    0.99486324743767   -1.50424472747166
O          -0.54641184403709   -2.52363097188564   -2.13354618969553
H          -1.21118660892554   -2.52678624461091   -2.82298169762924
H          -0.93952473803886   -2.06534571189082   -1.37350932912311
O          -0.26837750916563    1.18813228441561   -1.20142823457217
H          -0.56735841785737    1.87768132818222   -0.41556244638709
H           0.74183974459847    1.05997264823129   -1.09826394610974
H          -0.68633631771304    0.29278650003239   -0.86805927650193
O           0.89689327740643   -0.51011814318603    1.54635068075479
H          -0.41916365240969   -0.93639705485416    0.58040576132334
H           1.55780671027645    0.04335705795257    1.11722118691140
H           0.39996894716430    0.09447153012760    2.14047792430075
N           2.06720376724037   -1.94095135494696   -0.96724882993884
H           2.85923076309754   -2.50211652828922   -1.25332281060176
H           1.26782354333970   -2.21481475395876   -1.53504169435855
H           1.84521005110337   -2.18059125095649   -0.00713700153599
H           2.20386484093938   -0.36038565471262   -0.94066241531534
