    26
        -50.44334443  Gyration_radius:  2.72019117901 Dipole_moment: 4.393
 S           0.70589917936305   -2.13558541606303   -2.00308892933555
O           0.25474552695996   -2.91676901198636   -0.86570943572096
O          -0.41429180025001   -1.37429850297389   -2.58666607690065
O           1.84463083953931   -1.29671119697645   -1.72010769771771
O           1.14556177054429   -3.16150415499352   -3.12072215068130
H           0.37928727020467   -3.72205958615106   -3.19455550569081
O           0.75752140040285   -0.02820173624966    2.18107763779295
H           1.26289787286009   -0.04398619426347    2.99380214801949
O          -1.12923714686537    0.20507055041395   -0.83959681087853
H          -0.92083619660786   -0.42889860959838   -1.67297505700791
O           0.02295176880481    3.29312197172858   -0.13110537138627
H           0.70977707081737    2.62391109497774   -0.26635167067816
H          -0.39742951694438    3.42437635443012   -0.98267372362732
O           1.28580543051761    0.82376696233196   -0.33965245429252
H           1.65096385005918    0.09451382952252   -0.90160141753966
H          -0.20317365794829    0.61400705796596   -0.63689276620100
H           1.34583560366481    0.50340923242236    0.58155975482614
O          -1.09449894952930   -1.57251282253358    0.90684747123292
H          -0.63697923586448   -2.22554850062000    0.31849380168675
H          -0.40590910328075   -1.23228312019075    1.50798151599893
H          -1.26562606096871   -0.50155506889089   -0.05267060543954
N          -1.06161850729216    1.88474063090451    2.18548412524645
H          -0.76049812929391    2.50380643648139    1.43189144130224
H           0.07608437852042    0.71050553130373    2.26390322929939
H          -1.18615821116804    2.45073621915466    3.01510964547644
H          -1.96570545623115    1.50794806984308    1.92821889223414
