    26
        -50.44261597  Gyration_radius:  2.73415058253 Dipole_moment: 5.451
 S           0.95194631347192    2.51525131966749    1.40651470641953
O           0.02125362109988    2.83136565728642    0.30252149905150
O           0.27591002805614    1.73303092030056    2.42856308783671
O           2.18256086776233    1.94358100121263    0.93332735936176
O           1.29672217068894    3.90675689868072    2.07136258279891
H           0.49895680309124    4.10169788080451    2.55319063476062
O          -0.13608480701864   -0.07825174822405   -2.44618542956302
H          -0.56641329782402   -0.02967781615748   -3.30035735293521
O          -0.31587643865968   -0.52611104152550    1.32553792532188
H          -0.10992062172835    0.22850366723034    1.93374192372245
O          -1.88981560546003   -2.68792652512940    0.62464835403627
H          -1.35253648925669   -2.01380687510386    1.07080978152293
H          -2.76537559694659   -2.63597713191249    1.00938706938200
O           1.81210173882046   -0.39262797029324   -0.22740250098811
H           0.52498188648583   -0.67491821721636    0.82373610443636
H           1.55783313897410   -0.11964947373412   -1.11527750059839
H           2.12855492647754    0.42633561744328    0.21334521548453
O          -1.35016435652773    0.94131096430949   -0.43967815133718
H          -1.06610506882165    0.26064583370132    0.29759590147709
H          -0.80165433666047    1.83372984145238   -0.14084408063233
H          -0.90099006955584    0.60356578656415   -1.29424306475104
N          -0.00712997016152   -2.53909676373579   -1.60126464406850
H          -0.10765686320577   -1.06259852649900   -2.17466979542580
H           0.03907562412228   -3.31825602441319   -2.24533613717192
H           0.84971715868036   -2.53138912965722   -1.05881536574574
H          -0.76989076594254   -2.71548813501161   -0.95020811244275
