    26
        -50.44334420  Gyration_radius:  2.72006372501 Dipole_moment: 4.401
 S           2.26703006355813    1.95721901519828   -0.32068298752050
O           2.24310353046037    1.58279618351385    1.10552893307914
O           2.70633660086798    0.83866635809546   -1.13515787285523
O           1.01922572650362    2.53830255432274   -0.75137829358831
O           3.37311734803307    3.07809130133213   -0.44340165134710
H           4.16862108493210    2.60288130825385   -0.22381728325238
O          -1.02737613458441   -1.02898549814856   -1.79222204626629
H          -1.48546092219428   -1.25861582952171   -2.60061972028995
O           0.54340548058340   -0.18645130694862    1.30197060941517
H           1.30149641858389    0.56364538770368    1.35079301833960
O          -2.77761365514582    0.05766520631511    1.76613481063535
H          -2.42124989891596    0.64632843016448    1.08476255193074
H          -2.42525013205099    0.36797567751185    2.60190704381182
O           1.43985350132219   -1.38950136015296   -0.68790531142765
H           2.03405228376141   -0.64039827661160   -0.94826685970835
H           0.92372564539521   -0.83608019595171    0.54665893599478
H           0.67754335806362   -1.34346688789195   -1.29466696341037
O          -1.07319516518157    1.13187724777896   -0.15219883717598
H          -1.14474886181150    0.51882027063990   -0.90968738873786
H          -0.22718480579730    0.30905994104095    0.82612314902076
H          -0.38850296646247    1.79894334228322   -0.41101315859502
N          -1.98479481061411   -2.33512946026777    0.29221663747320
H          -1.43398034852858   -1.57610551761996   -1.04903556435520
H          -2.36052692545405   -1.59521585920883    0.88655124042737
H          -2.71677526361737   -3.02082651855170    0.15737143061596
H          -1.23085114167683   -2.78149550325772    0.80003558775386
