    26
        -50.45582898  Gyration_radius:  2.45828146784 Dipole_moment: 2.260
 S           0.31977548676749    0.22094828298125   -1.95062204861772
O          -0.37113444313509    1.39559319698191   -1.44930743033290
O           1.56099480662659   -0.05945250656770   -1.27206990607613
O          -0.57530470024466   -0.93717527642865   -1.99721420490962
O           0.68945276068899    0.53447759300117   -3.45796415532634
H          -0.16895693906581    0.68525714062666   -3.83950079998048
O           0.51093190072064    0.76013972511964    2.28993155935054
H           0.71759129008211    1.06801299632022    3.17282478595919
O          -0.45195984027590   -2.63234748744950   -0.17780742878067
H          -0.47202831681223   -2.01007721955324   -1.01185997658767
O          -1.76298738841766    0.66423697070652    0.72906729550278
H          -1.06284079781008    0.75025735277133    1.39727044079958
H          -1.36004973983002    0.95312135523628   -0.11250848296571
O          -2.59799927872287   -1.79048813520961    0.85761219367081
H          -2.34704961529191   -0.82167846680917    0.85739924422685
H          -3.33231442213826   -1.87390881417724    0.24679146459228
H          -1.33641071895666   -2.40221108868566    0.31005010688011
O           1.40504855360881   -1.42403649159758    0.97052980799758
H           1.65203686459860   -0.93351154480422    0.15385588189561
H           1.06054928977996   -0.74030541510401    1.58092097007021
H           0.34117839013555   -2.23087157645135    0.40034658982256
N           1.58151216362282    2.26691850658327    0.41951061407867
H           0.95488787955472    1.39117795586931    1.64103833530644
H           1.79863591128765    3.25489935696897    0.46306698706659
H           2.39387582619343    1.77815076427929    0.06118587273609
H           0.85256507703461    2.13287281537617   -0.28254770637581
