    26
        -50.44334440  Gyration_radius:  2.7204494782 Dipole_moment: 4.396
 S          -1.46958311127170    1.20405775140583   -2.33759574277754
O          -0.36705069002111    2.13065449570133   -2.02023534976648
O          -0.95309569444697   -0.03037804291639   -2.90043487381515
O          -2.35545178354815    1.00841855371930   -1.21624501630005
O          -2.30342925080648    1.91496113432539   -3.47525111097283
H          -1.68338855634110    1.93703488912383   -4.19767692152902
O          -0.30116571250219   -2.18603242758208    0.67716258434773
H          -0.63022758789644   -3.03386102113954    0.97558581265685
O           0.95825185202533    1.01625443500910   -0.27084987941702
H           0.47589626198266    1.60017011558804   -1.02300082617817
O           0.55660332675537    1.04153130742221    3.07706471556225
H          -0.25422942971882    0.88533797042818    2.57112860488736
H           0.81619113102047    1.94696078987984    2.89825548184729
O          -1.15385438053858    0.37038814822347    0.98902832063544
H          -1.08755798993201   -0.60237306224067    0.92464434710787
H           0.18214247988148    0.80630663293141    0.37680056029383
H          -1.75089500717814    0.64799221816001    0.24920444599637
O           0.94535434727382   -1.14400580741201   -1.51329537958429
H           1.11609614546430    0.09080945048538   -0.77673470978266
H           0.46453721492205   -1.71782710825328   -0.88812709375107
H           0.26782956379927   -0.83342704472316   -2.16639223116722
N           1.80191024737171   -1.39809488823572    2.06467949775455
H           2.55274861734395   -1.13109828365138    1.43978443239942
H           0.50673782346988   -1.96178393657851    1.23731796840824
H           2.18934799538438   -2.00996406583477    2.77153806878531
H           1.47628219750926   -0.55203220384917    2.53364429436259
