    26
        -50.45582951  Gyration_radius:  2.45825811981 Dipole_moment: 2.236
 S          -1.95283954736037    0.21907298074442   -0.30470949294544
O          -1.41505854728556   -0.67151633555965   -1.31753115603735
O          -1.70524413367073   -0.21865194446769    1.04689837686782
O          -1.53023762379299    1.60136248508975   -0.54012998556411
O          -3.52414801885545    0.21597517507132   -0.49997434620116
H          -3.60834256968851    0.54818486193028   -1.38754163713513
O           0.35508575312299    2.53063524207269    0.79507563268812
H          -0.49978487402294    2.22560928435158    0.28617642683208
O           1.84817769939605   -1.50295313097511    0.63936440132700
H           2.55578839683090   -2.09958611229673    0.88498065586039
O           1.18677664163866   -0.08102426864630   -1.63118029937577
H           0.22677951023347   -0.26114988007788   -1.62784157096374
H           1.55665131513530   -0.61998505824741   -0.91225194636054
O           1.93245729858979    2.36288137473538   -1.17232293448035
H           1.07823616627009    2.54671919381148    0.05358845128857
H           1.71226680705814    1.41556099032287   -1.40820973301120
H           1.62557189473927    2.89679705780158   -1.90722727383575
O           0.62099650190098    0.41723805420468    2.09438911858827
H           1.21126384785644   -0.21268586867817    1.63231193892442
H           0.56617072321770    1.70319607632184    1.42457797355936
H          -0.29051238583014    0.11558947359201    1.87790544824656
N          -0.46436129727667   -2.73018320607250    0.39254745941467
H          -0.85019850433199   -2.12674863630971   -0.33493287167312
H          -0.63389438750173   -3.69213896280077    0.12594346134487
H           1.00575969330884   -2.05192938179774    0.56543433359188
H          -1.00736036968391   -2.53026945411661    1.22465953905581
