    26
        -50.44683691  Gyration_radius:  2.46795776848 Dipole_moment: 3.590
 S           0.58064537884564   -1.73248045016222   -0.80866209433175
O           0.85373870579482   -1.92173848767421    0.62328006949784
O          -0.31446161235899   -2.71612197596507   -1.34344414772420
O           0.23153980344761   -0.35234790533841   -1.07285924477160
O           1.98731028429060   -1.94521417681384   -1.53817846280998
H           2.00845128132196   -2.87850162275878   -1.72813009650950
O           2.36803369803143    1.82964345220728    0.48218870064362
H           3.21119005825914    1.44228974144094    0.24066080847956
O          -1.51376197254189    0.68401390063936    1.82482105400403
H          -1.91508166968589    0.55145270324445    2.68520723463385
O          -1.47745543680200    1.81812358752440   -0.82808025767637
H          -1.05264118062565    0.96227389983904   -0.98964510092233
H          -1.61756574757192    1.85285151359656    0.12293840886230
O           1.13257573769710    2.07262407837715   -1.78468624351207
H           0.96039733473442    1.11543311370314   -1.81490838968167
H           0.25527022556156    2.45352472997937   -1.62258761847759
H           1.89712797823084    2.02475014407865   -0.38344900285836
O           1.00011671413062    0.20310417848358    1.85153300633852
H           0.99180023303336   -0.73222346188882    1.33177771932755
H           1.54646683475679    0.88604560686964    1.28904450342982
H           0.02222923314347    0.49361053168363    1.85521203139867
N          -2.26411630963620   -1.30773395245446    0.28298702042121
H          -1.81610403005201   -0.08578813083110    1.23686217946584
H          -1.44978608025537   -1.72899684404004   -0.16075830052046
H          -2.79050256586470   -2.05921200860842    0.71365458885752
H          -2.83541688588768   -0.92938216514358   -0.46477838557599
