    26
        -50.45582961  Gyration_radius:  2.45845931414 Dipole_moment: 2.240
 S          -1.25810857627813    1.28371559477283   -0.85227657896552
O          -2.01142410520673    0.15772675206167   -0.32994327961105
O          -0.45584389161294    1.95770409993979    0.13859048156561
O          -0.49046266823904    0.89943324854698   -2.03877162704701
O          -2.32699214239101    2.33558159695994   -1.36048667059008
H          -2.78591382726411    1.83635697549667   -2.02796355209471
O           1.93935533199210    0.41173658758375   -1.79726236261099
H           0.95528855756824    0.70288732374485   -1.96997177380313
O           0.79242747762382   -1.06451423831611    2.07968867275269
H           1.08813982495358   -1.46973797412207    2.89537679049745
O          -0.37322588168999   -1.96975744956143   -0.25220903864382
H          -1.03156399998836   -1.25603474739745   -0.35850336463224
H           0.04926635840958   -1.81006826617263    0.60806091634833
O           1.91278136077134    0.93280479812871    0.64280165525991
H           1.66643480887320    0.14648808175599    1.17182820102236
H           2.07042562638263    0.61449940973449   -0.76444367407967
H           1.08388168007385    1.45814577942756    0.56860021699393
O           1.54227314769118   -2.07574504805081   -2.00086256674272
H           0.80379303086135   -2.12436693941615   -1.32710646393004
H           1.14495413361674   -2.29468145888426   -2.84552989870443
H           1.90450326988431   -0.61762044713920   -1.90789836550114
N          -1.33990795863203    0.43720872730192    2.41516533323283
H          -1.74638948905402    0.28688574620625    1.49082681083086
H          -0.02344949830352   -0.51370879626395    2.29755957292014
H          -1.03507006011388    1.40378092068136    2.42158034112089
H          -2.07517252992364    0.33127973298179    3.10315023441123
