    26
        -50.44683688  Gyration_radius:  2.46797141611 Dipole_moment: 3.589
 S           1.06971735033158    1.50442720674422    0.76524446531382
O           1.44276330052244    1.61158389284361    2.14521939962041
O           2.05404845788771    0.76831863277402   -0.04102277685466
O          -0.26314089395607    0.99985023433588    0.50981833355032
O           1.06510392028140    2.98945012788170    0.17287009141441
H           1.73050494057751    3.44194195119456    0.68286208779960
O           0.20340131602558   -2.45827329551890   -0.07666507492357
H           0.72207992251224   -3.26240885221344   -0.13334719249745
O          -0.86650857970347    0.60787273672645   -2.84015866140471
H          -0.54919719227964    1.45058715198454   -3.16955049730630
O          -2.17834022237271   -1.00103146094945    0.65088468530109
H          -1.70670516335943   -1.75246415624867    0.27916003911210
H          -1.49779040916399   -0.33008990260903    0.81138821567098
O          -2.50419551275988    1.26841849999519   -0.94125734511559
H          -1.57569664174248    0.82670314026564   -2.16315188715495
H          -2.86509466497115    0.45955488611295   -0.54560926351564
H          -1.76197158198384    1.49454817538555   -0.35412957664669
O           1.00656929543856   -0.67787580510447   -1.73097893251427
H           0.22262989308800   -0.16461848757034   -2.18185394097347
H           1.48789328067803   -0.01880711581903   -1.03887086654102
H           0.61697002418837   -1.41431996035015   -1.14234493290927
N           0.87317348818506   -1.23535200587783    2.15108139222198
H           1.64326727866443   -1.62360546802666    2.68354236428960
H           0.06181322882586   -1.22305872519346    2.75956594203580
H           1.10378118047709   -0.26226414180233    1.95760704815725
H           0.46492400459279   -1.99908725894925    0.78969688386718
