    26
        -50.44683692  Gyration_radius:  2.46789399263 Dipole_moment: 3.590
 S          -1.73991797066941   -0.27931299350942    0.94189501323115
O          -0.74413577811369   -0.54218122676521    1.99070013025771
O          -2.65197502855469    0.77182087261629    1.28538303552363
O          -1.08887904031885   -0.15348962926366   -0.34525537106288
O          -2.60301949447548   -1.62082654836407    0.83397313925820
H          -3.31291339646890   -1.48751281513116    1.45514585799534
O           1.20993559281816   -2.64039728272835   -0.86682611171528
H           0.69292382551379   -3.40536455988250   -0.60832796846561
O           2.02747143920934    1.35225122404049    0.38823325593771
H           2.67765646476522    1.75523451307327    0.96599422770575
O           0.58878035868946    1.17808167095690   -2.10675112615955
H           1.38147596765683    1.29459357671230   -1.57445141598072
H          -0.09681713709546    0.89974577102090   -1.48099831185246
O           1.48242999907046   -1.05097986886239    1.08028987931123
H           0.51281646476059   -0.88279616661811    1.50032480991266
H           1.38107295505618   -1.69092386496129    0.26695433699250
H           1.76723658596416   -0.13305874239829    0.73828516156032
O          -0.31061281591485   -1.42203597731895   -2.57782805616055
H           0.69020642618611   -2.19254828605644   -1.60064721666914
H          -0.88596041206108   -1.09714385273139   -1.86354229382062
H           0.14287865312419   -0.62057122515422   -2.88288105237294
N          -0.30217844334618    2.44043213493804    0.93201722411315
H           1.13477127220956    1.78494694663687    0.60189026424849
H          -0.60798423293396    2.95558586163469    0.11359617301727
H          -0.99657646220659    1.71241182256125    1.09109044627450
H          -0.34868579286284    3.07403866555278    1.72173596891951
