    26
        -50.46212467  Gyration_radius:  2.51168375176 Dipole_moment: 6.142
 S           0.55863341537417   -0.86593796338939    0.77075470632523
O           1.04721421516238   -2.33263871384400    0.76439121102946
O          -0.88033330532183   -0.86279048692198    0.48721372283544
O           0.88038200542613   -0.28388383056694    2.04430027965387
O           1.26541477911682   -0.17920154651016   -0.33237108473312
O          -2.10265385040467   -2.71496583090761   -0.90674411258188
H          -2.79402035584879   -2.25494081892555   -1.38529119592955
H          -1.71868467900349   -2.05536355107031   -0.28355228105501
O           2.12195257517553    2.22366209508798    0.49324674549052
H           1.94662248412907    1.27942186566512    0.29680157182561
H           2.87563745645586    2.22821258359766    1.08518721062233
O          -1.89551896022236    1.56045695129531    0.38973176907691
H          -0.92510598184475    1.80618801672012   -0.68262389244702
H          -1.72722740816343    0.59596542382381    0.48848272014327
O           0.40211866481685   -3.25380882892625   -1.59684226068102
H           0.87664493559572   -2.64035693037572   -0.16154558260135
H           0.55046756938040   -4.20113064824004   -1.55671844334076
H          -0.56761264990140   -3.12277069576282   -1.48330412634905
O          -0.09278583160823    2.20010537758809    2.18444372106922
H          -1.41706425281293    1.94928152117120    1.16659965885428
H           0.17093561553764    1.27696219533760    2.36986203722092
H           0.65708590173327    2.54850369470108    1.67792989469028
N          -0.03482306512972    1.80385778501683   -1.34275641057825
H           0.47917697301149    0.90093971144646   -1.06833676211935
H           0.58836065719979    2.56977612042546   -1.08917889167367
H          -0.26481688785135    1.82445651356093   -2.32968021474670
