    26
        -50.44582830  Gyration_radius:  2.56336796252 Dipole_moment: 2.750
 S           1.34989910421926    2.27901240904923    0.07067348806117
O           1.67989308351430    1.77880419202529   -1.23322169280145
O          -0.04609248701892    2.87433553468619    0.07259981155945
O           1.53597615792042    1.37431457929714    1.16107261522237
O           2.24364676376111    3.54714553694853    0.33112101015644
H           2.21947721253290    4.02351729008608   -0.49427976193946
O          -0.48436363932057   -0.40083402475612    2.16805452768838
H           0.03381573114483    0.27070100072950    2.61991991141527
O          -1.67836073811113   -0.75441374747272   -1.55792694316618
H          -2.45035130147431   -0.94253001476226   -2.09260559678512
O           1.08722257422380   -0.77736784522169   -1.96720465279120
H           0.12286586067831   -0.72460523244915   -2.03902115883227
H           1.39614987287505    0.13870683679371   -1.87241742067173
O          -1.69851041868715    1.08288498854448    0.38298060435489
H          -1.32168835795807    0.51375452211559    1.11163568745809
H          -0.80755234460029    2.10555110913107    0.20686310685653
H          -1.71113594576452    0.50946937625238   -0.41697613773085
O           1.47035573588540   -1.35949407973895    0.60635948181909
H           1.37892641863880   -1.28516883081082   -0.37320191479468
H           1.91005463729174   -0.53893122967625    0.86341890213829
H           0.17718530335580   -0.86802411633802    1.60422834167450
N          -1.29536828102604   -2.67266482986540    0.23335856187215
H          -1.56448945958960   -1.52356200440884   -0.92016540452047
H          -0.28266680188164   -2.70859311692037    0.29434850523895
H          -1.63020579684700   -2.32305914538471    1.12408942654842
H          -1.63468289376748   -3.61894912785859    0.11629669194657
