    26
        -50.47066082  Gyration_radius:  2.50110810868 Dipole_moment: 4.630
 S           0.05130116748114   -0.13908742463940   -1.07879585783564
O           0.10913686379477   -0.24364749711112   -2.61577710679632
O           0.91638677985273   -1.18815392739544   -0.56089387889833
O           0.55935262880341    1.18521958779414   -0.68505196536068
O          -1.33109012579512   -0.30456917378681   -0.64410069182749
O           0.33690756246905   -2.87430740740894    1.46387759845134
H           1.20524510455141   -2.89053041574895    1.87345686782040
H           0.46660079732222   -2.44660417995554    0.59685421882406
O           2.79700461213422   -0.88983311779233    1.25451508773149
H           2.17103175587269   -1.06316580122711    0.51141654753341
H           3.63757987282884   -0.67885152545661    0.84599411555596
O          -1.19277473529284   -0.73735347251083    1.97544240069997
H          -1.44881894239028   -0.61183808315360    1.03705868107692
H          -0.78983904469804   -1.63228600524082    1.99039275961627
O          -1.89524036019050    2.26051325756061   -0.96909904091701
H          -0.94197784556671    2.39381933888163   -0.86846249082912
H          -2.01021956200932    1.33041890423199   -0.69898010029818
O          -1.77011097431294    1.34084391271634   -3.43979175145929
H          -1.91869447602798    1.85893326381557   -2.60917848236558
H          -0.57273772181771    0.38003061388462   -2.99596486062926
H          -2.55991748897445    0.81220283623368   -3.57336496830070
N           0.84749100996957    0.85340614520676    1.87040667474929
H           0.75516329123380    1.13856889816948    0.84698573536972
H          -0.01818178424252    0.22632656921654    2.06348432438246
H           1.70508041727575    0.26564357355074    1.91886712716895
H           0.89132119774963    1.65430112017273    2.49070905653758
