    26
        -50.44683690  Gyration_radius:  2.46785062858 Dipole_moment: 3.584
 S           1.85842099070339    0.73436706828634   -0.00822023829231
O           2.33919787450471    1.70665323485006   -0.94540469585340
O           1.26475868267938    1.33842516290363    1.19320449895923
O           0.97485863384033   -0.27805159102749   -0.54740511921970
O           3.13585301674302   -0.07352912382613    0.51301368506019
H           3.84338976110643    0.56284319971367    0.46842190231811
O          -2.27655345766682    0.94476531074945    0.12572004469978
H          -2.90625245174780    1.59368393755434    0.44399300018583
O          -0.23599690419115   -2.35696601888147    1.89019560750892
H           0.57570728673431   -2.56060086300934    2.35811094407422
O          -1.39293656862951   -1.04037866263532   -1.77330860547454
H          -0.54650945510698   -0.64695765889340   -1.51281297787233
H          -2.05044458354890   -0.61099669205599   -1.21781379873569
O          -0.72050453474938    0.12270111354128    1.98416867316165
H          -0.53836058695698   -0.89974832797221    1.93316579221253
H           0.16943058756071    0.63933896856260    1.69089276950436
H          -1.39901221497841    0.36823036594911    1.26296353760144
O           0.33383161230292   -2.88329862778526   -0.58433503213986
H           0.86481424935957   -2.07095049007084   -0.65415357125250
H          -0.08216355769377   -2.63758211718641    0.93801891895625
H          -0.44401584150080   -2.69078424829444   -1.13106316800225
N          -0.49359580998517    2.21399534255438   -1.32925830703474
H          -0.54580100716791    3.22581405392428   -1.35480214182548
H           0.44548713756755    1.97052402367813   -1.01891815535344
H          -1.59830471283567    1.44484191337946   -0.43971125043841
H          -0.57529814636989    1.88366071600092   -2.28466230275363
