    26
        -50.45450940  Gyration_radius:  2.45188438282 Dipole_moment: 5.287
 S           0.35073682418332    1.58508820870456    1.31384367322652
O           1.58494906008778    0.67054774229760    1.23634488482520
O          -0.74516233248945    0.97410500134193    0.58376595871796
O           0.09655419692820    1.87009599462401    2.67953694629539
O           0.76915640124953    2.85809448948187    0.54652378002868
H           0.32815282257453    2.84674476239093   -0.35698360050425
O           0.05594832304596   -2.60033212215832    0.26063765842176
H           0.36712158202482   -3.47910877970767    0.48146901813982
O           0.03841577797455    0.19688611551223   -2.76255464877179
H          -0.07558749424179   -0.04292127678754   -3.68286654431404
O          -0.55838810316830    2.60373537842822   -1.64620841440478
H          -0.21735710367348    1.83437697707326   -2.14531631677812
H          -1.33682417948456    2.27881323606891   -1.18174427723492
O          -1.65582552104438   -0.90888699029620   -1.12183216549544
H          -0.68647269421309   -0.25897112710668   -2.24600357398128
H          -1.23296752486229   -1.70225808272876   -0.76030079752826
H          -1.50863770940586   -0.22700406146908   -0.44311965122635
O           1.72634971950595   -0.76137664124455   -0.83832696753814
H           1.67663023155764    0.14112711956213    0.35928125215846
H           1.17346805557964   -1.50853002222445   -0.52752727587624
H           1.25307946188080   -0.36251500337217   -1.59116907364136
N          -0.30536177770040   -1.18641473150865    2.49286041465233
H          -0.09268569545042   -2.12119299119058    1.12674827583231
H          -0.83705894356058   -1.47344867960615    3.30631997212588
H           0.59604797002281   -0.85548715345476    2.81791011511256
H          -0.76428135732044   -0.37116733263641    2.09871133775859
