    26
        -50.45476226  Gyration_radius:  2.60394669287 Dipole_moment: 5.746
 S           0.69487832157541   -2.49703002381053   -0.44303103229781
O           1.16216281568323   -2.48665111130779    0.92766785097624
O          -0.64375694043698   -1.99030366669764   -0.62816311769581
O           1.63220374508502   -1.80926676810376   -1.34452462192455
O           0.69256389839670   -4.02178854605793   -0.88935793586081
H           1.45936802816764   -4.36024906539170   -0.43760143196444
O           1.53412678511628    1.56069911816086    0.75315186285930
H           2.46102136619621    1.55471778574127    0.99346050520383
O          -1.81457678844318    1.61605106127284   -1.20271831202477
H          -2.58902789730294    2.03783894195027   -1.57485991952130
O          -2.05516366381223   -0.32871142998925    0.86981263881954
H          -1.69569425954840   -1.10575624067070    0.39848332562241
H          -2.20055117402870    0.31396300048375    0.16229903220147
O           0.34487963071647   -0.25144375184487    2.07432515130723
H           0.69671288766902   -1.11737294022915    1.77056187451290
H           1.09632509302801    0.82996282646757    1.32155566104172
H          -0.59452187955751   -0.25722314486821    1.78707847815324
O          -0.95331766734678    2.73776143338023    1.03996250713458
H           0.00049879493225    2.56004686111308    1.01665934508526
H          -1.31402694699121    2.13813912154142    1.70047435919859
H          -1.52826618865312    2.16353760217129   -0.43059535511384
N           0.71462817336678    0.55421192740009   -1.59032621756655
H           1.09170616504457    1.02798189841441   -0.72910836920278
H           1.06415633453470    1.00263968220334   -2.43115337805757
H           1.05712500326583   -0.48363548127160   -1.54809512442107
H          -0.31345361662969    0.61188090993431   -1.56595776645416
