    26
        -50.45476236  Gyration_radius:  2.60373925191 Dipole_moment: 5.752
 S          -2.34466331410602    1.16713992117862    0.22621090620261
O          -1.09259100304888    1.80487569281479    0.55554500615651
O          -2.51084102187350    0.84684654096372   -1.17626758700427
O          -2.56245424276262   -0.00802443301471    1.08414857448971
O          -3.50700493916795    2.19140223378482    0.57886146935395
H          -4.22657594512060    1.86362249962103    0.04837181129188
O           0.19314801215554   -2.17213146896140   -0.77709566406483
H          -0.40941033424007   -2.84593386501635   -1.09305069079044
O           2.28151452271956    0.22291905934123    1.44473329575276
H           3.07316071941804    0.50278192200679    1.90420543978130
O           1.22652999647678    1.75488021158149   -0.71622964267051
H           0.36679383117433    2.00569268202997   -0.32503330282844
H           1.72380948089351    1.41220773388926    0.03882386524104
O          -0.20398889846903   -0.04524566468756   -2.10497990845351
H          -1.10689693298305    0.27628270286827   -1.88760933523543
H           0.39297131051729    0.64578340510581   -1.74262388399415
H           0.00857911302987   -1.34474671235724   -1.35135489443202
O           2.75674915560380   -1.13128101067032   -0.78492731693527
H           2.62708693450395   -0.44958326389406   -1.45151332577950
H           1.98335649292370   -1.71383188589191   -0.85091325895742
H           2.57015655630400   -0.34490108354042    0.68836550750302
N          -0.23560512934779   -0.92993547456508    1.55727764342548
H          -0.05176917293921   -1.51330621084544    0.70046128230613
H          -1.22400989659330   -0.48202559869697    1.42044892614915
H          -0.22555841492090   -1.50421705482592    2.39414005621314
H           0.49751312982202   -0.20927089819620    1.62000505726810
