    26
        -50.45476220  Gyration_radius:  2.6042247841 Dipole_moment: 5.750
 S          -1.19187176382626    1.59659949055674    1.71696350116590
O           0.08197648196352    1.88527839408847    1.10291495557158
O          -2.31107167310188    1.55525021940036    0.79877433375120
O          -1.10451056952951    0.37143987282927    2.52666628741630
O          -1.50802423692753    2.77549496778661    2.73399090270249
H          -2.45317582106353    2.70671298976895    2.82723652340408
O          -0.96418091195172   -1.99979386467394   -0.65481107828435
H          -1.78041201744612   -2.46444132743352   -0.46826793831405
O           2.61786386493606   -0.52598954773891   -0.46852444638786
H           3.55406798567714   -0.50738707696069   -0.66652364249487
O           0.88126412645364    1.53790791211553   -1.39464391884402
H           0.59616852942142    1.90211528408212   -0.53368258708385
H           1.63201945278058    0.97505627643795   -1.16153001218204
O           1.13060746278199   -1.55581013368207   -2.40701202089043
H           0.79198884270484   -0.75948506777230   -2.82790325851047
H           0.38046725697115   -1.93635605327405   -1.92287452701676
H           2.17379739822494   -1.00737819499430   -1.20941700517651
O          -1.52952079115384    0.35347277368345   -1.42026424097633
H          -1.24305747700026   -1.06799659045611   -0.97516887999337
H          -1.93830231090220    0.82208386051536   -0.65922689308457
H          -0.68158274361189    0.82669699536865   -1.56914575388485
N           0.59337782334036   -1.10455007281532    1.33217397506843
H          -0.07063370199795   -0.43390409179802    1.88496559271034
H           0.00457934289388   -1.56062509100713    0.58803133406001
H           1.35200437319926   -0.58422568746881    0.86895361410709
H           0.98616110714335   -1.80016625656844    1.95832519317123
