    26
        -50.46832752  Gyration_radius:  2.41194228091 Dipole_moment: 5.205
 S           1.14253968098126   -0.47045201596178   -0.45058640015354
O           0.06608879801367    0.45777191296509    0.26581293904658
O           0.71046841782490   -0.59864904611754   -1.82975573032602
O           2.42115447834780    0.17581447063156   -0.28600547258186
O           1.01229096466126   -1.72830903523817    0.28959918104441
O           1.95443602784678    1.81164681977636   -2.33243793983284
H           2.30032398254807    1.32337539823854   -1.55550084180347
H           1.77304034321559    1.11714931621942   -2.97371237647586
O          -1.88946011000464   -0.32211733684725   -1.68906531953995
H          -0.94376689308509   -0.49413386707996   -1.91262455287756
H          -1.95879108502219    0.63743715038909   -1.66973674180891
O          -1.28340080167151   -0.41120688176432    2.89649350907227
H          -0.32283511381648   -0.23841400254008    2.75536664117965
H          -1.33736130042382   -0.88033438797791    3.73129007956287
O           1.38738861300825   -0.40183836650816    2.56799445067789
H           1.37371345093580   -1.01699555147544    1.81096351019612
H           1.89079455047693    0.35117087969878    2.25049387534577
O          -0.44376487096667    2.38469166808027   -1.42796066277376
H           0.43271476909210    2.25316884662429   -1.88311753761106
H          -0.15992534341518    1.21873185982167   -0.32420112122278
H          -0.41527000246564    3.26545933895370   -1.04902269009476
N          -1.57411597639035   -1.70634553482964    0.56768623605032
H          -2.10042221088713   -2.57277184856773    0.61078355416487
H          -1.86543443544422   -1.11677463354107   -0.26118675329827
H          -1.63835548898938   -1.15670837157037    1.46373281542040
H          -0.53205041431518   -1.88136678133659    0.43469732857308
