    26
        -50.45476240  Gyration_radius:  2.60399697407 Dipole_moment: 5.752
 S          -1.55504373932499    2.07304520638226    0.44582257446448
O          -0.15033963596723    2.17461017517367    0.13039603326754
O          -2.37747970613739    1.53729997113689   -0.61898924254406
O          -1.74560850227857    1.33722335394976    1.70545260354957
O          -2.09099585714828    3.54510491418688    0.71002774852919
H          -3.02753276861654    3.44110852353051    0.57320093727869
O          -0.82656384554839   -2.16079191397767    0.06772728163377
H          -1.68154397636548   -2.56562013537224    0.21636742931783
O           2.62131961633589   -0.44611382813335    0.52927947570817
H           3.57565727951084   -0.43438409568700    0.60168623876479
O           1.29711336889600    0.84645393940580   -1.64121512529857
H           1.92999449249913    0.51010982508578   -0.99231679628920
H           0.79929230286840    1.52279538376678   -1.14136741512466
O          -1.05969673969827   -0.43600496354610   -1.78016867951473
H          -1.64399622382128    0.27940770968515   -1.44450031513201
H          -0.18515045055050   -0.00273709190604   -1.89151406915690
H          -0.96673829230306   -1.49030614572620   -0.69345607953191
O           1.68856553502589   -2.34239477153756   -1.07197774025192
H           2.38054960967442   -1.23871108354926   -0.01078672420306
H           1.51277436351827   -1.84094616316791   -1.87420486746031
H           0.81882996183084   -2.53886111953073   -0.68886220363765
N           0.15490043352577   -0.35682493104489    1.78762108392245
H          -0.22279052355430   -1.14105988343003    1.19534695476177
H           0.32966485427215   -0.67291697749249    2.73618554297013
H           1.03297711692489   -0.02618604755176    1.36274786505431
H          -0.60815867356832    0.42670015935119    1.78749751892548
