    26
        -50.45476230  Gyration_radius:  2.60397468851 Dipole_moment: 5.749
 S           1.07483317008070    1.81603837555537   -1.56858794603484
O           2.14199191294049    1.86191193403554   -0.59063376143082
O           0.71245413495580    0.48878386996371   -2.00466028053987
O          -0.11637333675749    2.54834007066389   -1.11150372782645
O           1.61545334318832    2.60282838369510   -2.83867551881569
H           2.12831046228199    3.29713572013996   -2.43674384962878
O          -1.80198952421628   -1.96829476373062   -0.47591586186045
H          -2.29743904302314   -2.72675434239358   -0.78476624596012
O          -0.41850812374855    0.43552517233880    2.23444751801168
H          -0.28231398168315    1.17362304813133    2.82907184360030
O           1.02873618660894   -1.84358277243728   -0.79738764930800
H           0.08946205610242   -2.07194095911879   -0.81654143022674
H           1.08526337610592   -1.06989447153787   -1.39179953881045
O           1.79233037007912   -0.12210082441695    1.11844017340494
H           0.49877098607833    0.23738284463650    1.82476845277217
H           1.62689735343850   -0.85373574950534    0.48409784054937
H           2.03794774366203    0.64093857464351    0.54981296366375
O          -0.72118195901290   -2.29697152653022    1.92284708026905
H          -0.69742984026001   -1.39239452353336    2.27361981183608
H           0.18811203281257   -2.51090935301969    1.69192062278221
H          -1.52483090257988   -2.16116035749436    0.45352796909589
N          -1.65243992527063    0.77531952437161   -0.11879708115605
H          -1.26606949350683    0.66932761501055    0.85479158937658
H          -1.59821415699286   -0.13968072633506   -0.58844325683865
H          -2.61665624782422    1.09129981390995   -0.09210121622729
H          -1.02711661346130    1.51896543297359   -0.62078849071013
