    26
        -50.46798300  Gyration_radius:  2.54870110594 Dipole_moment: 6.422
 S          -0.93017503649090    0.59633454353863   -0.09693391212483
O          -2.09609788176698    1.42535638387827    0.03771497019267
O          -1.37736450602071   -0.91106159416453   -0.14592554916104
O          -0.20983750442105    0.80526466176693   -1.35135628613931
O          -0.01177588426280    0.69905775215370    1.04486940203220
O           2.02438736027125    1.82197435414023   -0.44358014184299
H           1.18393719987222    1.62760091159181   -0.91842726687546
H           1.74667429161932    1.81422022007239    0.48062649583083
O          -3.78767316599409    1.13479549225503    2.03649029499664
H          -4.64870723353962    1.00325567769566    1.63640951850397
H          -3.18757080260093    1.39444345929326    1.30194679448224
O           0.98353541172559   -0.93545576352273   -2.87882661324231
H           0.91408300600978   -0.58052810582739   -3.76649545829286
H           0.40132916227737   -0.36348663519407   -2.31968647254976
O           1.24402790379660   -1.56710904630673    0.85569570847413
H           0.54111503292506   -2.11699056412810    0.49724054577223
H           0.80726499287246   -0.69575240502846    1.03805079623990
O          -1.93322358575562   -0.75965616763988    2.35257758511470
H          -1.17234038781093   -0.16428119772070    2.40132311689771
H          -2.71822521681901   -0.17340810158598    2.42371172884701
H          -1.72042645298175   -1.03057235871812    0.78380126706001
N           2.83185054873246   -0.61608841269666   -1.00348823671009
H           2.28717913712749   -0.81292176643073   -1.88012209190449
H           3.80570936025185   -0.88608343591242   -1.07642093439012
H           2.70144285353223    0.41992278090464   -0.78658613912021
H           2.32088140778899   -1.12883067228651   -0.22260913212643
