    26
        -50.46584239  Gyration_radius:  2.39853997502 Dipole_moment: 4.265
 S          -0.60147056602945   -1.04931004560793    1.43594447682727
O          -0.75020888028924    0.51690673015451    1.27561861816158
O           0.47741779665037   -1.43082030856919    0.49498628372535
O          -0.15745798110456   -1.20011185858553    2.80416094008371
O          -1.85503259607231   -1.65950238864127    1.07029466278185
H          -2.11380933056262   -1.55282954738007   -0.52668351106985
O          -2.28603563452951   -1.36257735612093   -1.48554794453350
H          -3.14931541058691   -1.73602448070026   -1.67031733329583
O           0.84399044495836    1.46183437928239   -1.77851484223548
H           1.26906303911957    1.82991816083998   -2.55387311889859
O           1.41753958118895    2.17223398807520    0.82699303799962
H           0.50951193732426    2.12432365813309    1.15405713385708
H           1.33902458216139    1.97255318893311   -0.12589714627775
O           0.42034724581542   -1.09171620707302   -2.11411356174023
H           0.53793491161382   -1.34974318960209   -1.17512576021063
H          -0.51705019617354   -1.26583229610278   -2.27643018526438
H           0.76405607624454    0.47855336619462   -1.94031765098060
O          -1.79141394623620    1.24389323341413   -0.95724379528416
H          -1.25099976629780    0.77894145159858    0.44112844101621
H          -0.95030166247529    1.47574121232733   -1.38652382232735
H          -2.06561846619640    0.37740278740128   -1.31651408304299
N           2.03791746409705   -0.12810378290070    1.98501160316087
H           1.69036065499278   -0.76021205016323    1.19616567032700
H           1.93978339715651    0.86555677977825    1.62620554088299
H           1.27336833651675   -0.36502176648914    2.67219065242347
H           2.96839897873637   -0.34605364815139    2.32434566394411
