    26
        -50.45472144  Gyration_radius:  2.51436364076 Dipole_moment: 7.554
 S           0.20341026254857    1.72424380865417    1.20770384194486
O           1.35741747712619    1.02107427298995    0.63534757960293
O          -0.55208941394914    2.47605902637858    0.25092079957415
O          -0.57721183686289    0.81076513503068    2.03972188775543
O           0.81981708061908    2.78389938735658    2.22467434541729
H           0.70721888804775    3.61116223782526    1.76748272117210
O          -0.04783835602986   -2.46523579727937    0.05435877164874
H          -0.41994421713573   -3.33945212825087   -0.06533168458941
O          -0.04167764440149    0.38006116541450   -3.45374588359205
H          -0.20224336203795   -0.31455032665965   -4.09360026298304
O          -1.95438821282792    1.01402036063219   -1.60545936772324
H          -1.53652401845786    1.69105223309464   -1.04925577098797
H          -1.33175613732198    0.85762968563412   -2.34156900035059
O          -1.94231767775073   -0.77952148409608    0.29761260660985
H          -2.06196194705909   -0.19259803679946   -0.49674218878461
H          -0.83951556556041   -1.82408650733466    0.08813097835282
H          -1.65351423330066   -0.17348938278905    0.99935920337841
O           1.50306233585446   -0.68011569666542   -1.51256438405572
H           1.53015878449488    0.04438313007265   -0.86691119611945
H           0.98705950878585   -1.38740736116564   -1.10024058565240
H           0.61558095177368    0.02614682274559   -2.81666724092386
N           1.11480810129387   -1.10305746737055    2.00135906031990
H           0.75083619632163   -1.83597009110011    1.33920978664819
H           1.71525341115298   -1.47391900768173    2.72869183829322
H           1.55809909010327   -0.33387275088141    1.41274961750206
H           0.29826053462753   -0.53722121779083    2.35476449755279
