    26
        -50.45472185  Gyration_radius:  2.51440592626 Dipole_moment: 7.537
 S          -1.23162469121367    1.57435095578562    0.69021452226064
O          -0.50822494364614    2.49266690860393   -0.13741248304463
O          -1.76507389791622    0.41379977438665   -0.03265303577176
O          -0.52964823736830    1.13453655805615    1.89427167163298
O          -2.51019609845270    2.36172475167032    1.22139080268020
H          -2.53790152169904    3.12991952966702    0.65994458606407
O           0.91239768969063   -2.21162094163120    0.59699099322035
H           1.59222349455143   -2.86008604200949    0.78236170098709
O           1.13591598802622    0.09176604749187   -3.28271819170347
H           1.74908173393766   -0.52168474883564   -3.68924700170448
O           1.89341651644416    1.60001289947777   -1.13066338686545
H           1.67854529507645    1.14301770352480   -1.96657555972648
H           1.08962189914096    2.08534989716351   -0.88436527363446
O          -0.50484998563488   -1.35822436772014   -1.70676754246402
H          -1.02209351006684   -0.66172017467530   -1.27113252048271
H           0.47073508948230   -0.45176141710776   -2.80814485201288
H           0.04716459892268   -1.75316112222250   -1.01691127044533
O           1.84546395828416    0.11988472473456    1.02502216347623
H           1.34951049894706   -1.29990126285702    0.72629657250766
H           2.02257860508883    0.63864280502992    0.19491642171031
H           1.12533350010910    0.60524512852520    1.45978802474947
N          -1.27946049579291   -1.30512965255124    1.76856635303489
H          -0.46382959561638   -1.87123985485583    1.41915857483731
H          -1.92476559967713   -1.83368337049563    2.34414872930589
H          -0.90848959660052   -0.42822396592466    2.22048936424224
H          -1.72583067403335   -0.83448078323352    0.92303062716152
