    26
        -50.44423955  Gyration_radius:  2.55681003203 Dipole_moment: 4.632
 S           0.23041237751491    2.15478478801113    0.88669107313517
O          -1.17217177381939    2.19909476484252    0.52771498733421
O           0.46961751878751    1.57820568347008    2.18980099116468
O           1.04677958370640    1.53770788847784   -0.16255138074247
O           0.74574198659825    3.65747145184725    0.94095093940168
H           0.28692649703881    4.02477743862843    1.69006141279150
O          -0.13778377962311   -2.07196132977219    0.80804460077820
H           0.03776013806292   -2.73736600021682    1.47471372089393
O           1.76001059220756   -1.49416619002266   -2.37926435724422
H           2.10348648514942   -2.35235455972944   -2.63144207122410
O          -1.12295409702178    0.97267513577955   -1.83413543024941
H          -0.24553300005137    1.26234935850545   -2.09962570787679
H          -1.27670879828280    1.43287166917142   -0.98506801976033
O          -0.77964868347496   -1.67733941804322   -1.92252771197779
H          -0.78592691287081   -1.93841186339404   -0.99223977639074
H          -1.05543344350531   -0.73256388507826   -1.94075600333867
H           0.75812896682948   -1.57879678107657   -2.35117336933258
O           1.91567942351414   -0.75404644441866    0.03642085949506
H           1.97762669535548   -1.02689479057816   -0.96212242122573
H           1.60233717363550    0.26758460834742    0.01406505110464
H           1.11659423228260   -1.28248503573596    0.40407737589434
N          -1.57638370390026   -0.25969050153204    1.90484603018782
H          -0.76349696217686   -1.37104908193578    1.25059340269894
H          -2.18854260130359   -0.46317727822078    2.68522544143586
H          -0.84269554859027    0.37907387539488    2.22583320968740
H          -2.10382236603946    0.27370647728270    1.22186715334639
