    26
        -50.45476192  Gyration_radius:  2.60457270347 Dipole_moment: 5.776
 S          -2.37455572980034    0.92118945283071    0.66067689363807
O          -1.17520464875521    1.72360691881664    0.67717040130352
O          -2.78180120432001    0.46798263598647   -0.65316944735610
O          -2.25737679965789   -0.19604984786730    1.61074307128622
O          -3.56329457738302    1.83000810033367    1.19425404259590
H          -4.32608138089919    1.38022935736008    0.84430960950403
O           2.48724271204083    0.57408933795329    0.92031790285572
H           3.31790695207103    0.96396943680211    1.19248700507546
O           0.29205864758975   -2.18987430771157   -0.69570074148189
H          -0.27665718004427   -2.94612158134655   -0.84273156839108
O           0.83197758624940    1.81829393268778   -1.04279365486373
H           0.04492951096216    2.00475026749065   -0.49408467510367
H           1.51043602600630    1.59368923423593   -0.39179144031558
O          -0.62401557764612   -0.22159269782319   -2.01129711102248
H          -0.05480890756830    0.55477491870055   -1.81613909745659
H          -0.10523248737954   -1.43185761495793   -1.25789061167316
H          -1.49534582009974    0.01200757960465   -1.62116605266242
O           2.65065716658953   -0.87050975377473   -1.29622654967811
H           1.95961580837346   -1.54004243536595   -1.17028785873951
H           2.67984353410911   -0.00900703553391    0.14505137094086
H           2.30071651448781   -0.25394273772110   -1.94692960733768
N           0.20780207061862   -0.83637788082044    1.61458554153586
H           0.85241439991986   -0.04285003643059    1.48820579747945
H           0.27728843470395   -1.45583120297545    0.76615334708406
H           0.45381319235166   -1.34826156916542    2.45582995154858
H          -0.83232823252433   -0.50227246131893    1.67042349121618
