    26
        -50.44423718  Gyration_radius:  2.55685515534 Dipole_moment: 4.547
 S           1.51484548513796    1.55733082313655    0.88363670054458
O           0.56681852757434    1.51637612867157    1.97835979873819
O           2.50998337648540    0.51207506630096    0.95040425085654
O           0.84873792657030    1.61861467290562   -0.42040214961479
O           2.28302071374528    2.94482332232429    0.98838807180637
H           2.74626630412126    2.88277894530454    1.81795699095772
O          -0.03766180947563   -2.20554704861937   -0.32099390038420
H           0.39812296828794   -3.04738792832314   -0.46047922162313
O          -1.57984279698636    0.02937574251242   -2.91343947357598
H          -1.88741224258678   -0.55547880334018   -3.60723703524649
O          -1.73338791757453    1.44544413221336    0.64083799569054
H          -1.45204357744030    1.97545724040412   -0.11023897647761
H          -0.96437423837227    1.46405723288055    1.24462169738476
O          -2.47151331996562   -0.79129544424571   -0.62716560996646
H          -2.32314631714791   -0.00076658137068   -0.06027475416005
H          -2.06072635608472   -0.23931613105923   -2.07212228922695
H          -1.79003259509020   -1.42915844725099   -0.37741602530775
O           0.71215295830470   -0.33892466768827   -1.90278488236415
H           0.86271018489350    0.51731190438454   -1.28125119368813
H           0.47102589973985   -1.10749290097050   -1.26682473157493
H          -0.16457073071018   -0.13463880726865   -2.41694845341145
N           0.71729642234341   -1.33192345072920    1.96459712673908
H           0.23563467141253   -1.88772122426912    0.62927139484493
H           1.53005802831261   -0.77767634010462    1.67851433389297
H           0.06622584945690   -0.65818097387785    2.35340298786154
H           1.00181254501495   -1.95813646194114    2.70758732730210
