    26
        -50.45472199  Gyration_radius:  2.51437651582 Dipole_moment: 7.542
 S          -1.15874578064862    1.64696573284212    0.64630558382106
O          -0.37202961698790    2.51636282775495   -0.17644241741088
O          -1.73911916717177    0.50758315494652   -0.07360963002380
O          -0.50353019330927    1.18515183004487    1.86859839903785
O          -2.40357007628578    2.50731030122793    1.14372569319446
H          -2.37145949293412    3.27509946787316    0.58192569371652
O           0.78031600091772   -2.25014879476664    0.64012606766276
H           1.41962569755746   -2.93144815392026    0.85018898270319
O           1.20331050308724   -0.01408441125647   -3.25844542927496
H           1.79476576730397   -0.66518220426275   -3.63772802825472
O           1.99643036557168    1.48433501340367   -1.11297102698787
H           1.21518288190668    2.01477409151799   -0.88807229431500
H           1.77299334760407    1.02763732222010   -1.94688840978525
O          -0.54621807320671   -1.35241724188681   -1.70093860730977
H          -0.02959020760510   -1.76769280756619   -0.99583662622505
H          -1.03300262782020   -0.62329309734715   -1.28397102756584
H           0.49941944747555   -0.51442808491839   -2.79227587865703
O           1.82902409689300    0.03380244038580    1.05652841788695
H           1.26337069497810   -1.36143072433383    0.76591482831507
H           2.04898929145875    0.53271214390071    0.22438569386232
H           1.12817580689785    0.56227990934057    1.47210174819346
N          -1.38120238879773   -1.21182326588785    1.75720236468356
H          -0.59057418437255   -1.82522759648524    1.43052542211344
H          -2.06379302759805   -1.69720557301136    2.32777970338124
H          -0.97196866807961   -0.34914953601913    2.20415008224191
H          -1.78680039680456   -0.73048275376858    0.89772072509785
