    26
        -50.45472062  Gyration_radius:  2.51414288823 Dipole_moment: 7.556
 S           0.08713066271407    1.56676013503360    1.41764720841073
O           1.18997225237057    0.61809043594368    1.22052289069587
O          -0.05313964379588    2.52078645942608    0.35857466676623
O          -1.13352762525485    0.84833863771706    1.77651395975184
O           0.47533033557535    2.39602990959510    2.72078831347572
H           0.75657898483055    3.23402700097984    2.36706234249900
O          -0.60127117064748   -2.37186806749023   -0.29892796514664
H          -1.07826127438049   -3.11793273933168   -0.66351517801184
O           1.38599091858007    0.51776246251457   -3.14148220462121
H           1.34767482137932   -0.08567995153344   -3.88441414179282
O          -0.90944445714021    1.53834534759413   -2.06035755128998
H          -0.60360116595767    2.06521678420779   -1.30454567976998
H          -0.10012693979720    1.25871531189570   -2.53006710235224
O          -2.02584347504410   -0.27406683963745   -0.54149851854305
H          -1.18373492351569   -1.55325400472744   -0.47156388372391
H          -1.90750281909617    0.21092239682349    0.29147531496767
H          -1.69766995275225    0.35536461353327   -1.23863556629932
O           1.78566381932130   -0.97671116398310   -0.93143275069648
H           1.00908730474098   -1.54643919285542   -0.83672732586208
H           1.64968377584487   -0.01623066500324   -2.36145155910930
H           1.71661973214782   -0.30942895711763   -0.22970630196299
N          -0.02073252557581   -1.42869408724032    2.10349310624442
H           0.77062728418674   -0.77090240118798    1.82639660841776
H          -0.24883547012371   -2.01794275446302    1.26157550957720
H           0.15663771457310   -1.96899754242023    2.94235906368033
H          -0.76730617303225   -0.69221112859057    2.20791672477840
