    26
        -50.45472194  Gyration_radius:  2.51442790841 Dipole_moment: 7.544
 S          -0.29595160714649    1.83601559100818    1.00714548629901
O           0.28626551457456    2.53347188550092   -0.10019358895301
O          -1.40465254949161    0.94881997655232    0.63651961047330
O           0.65111796785670    1.12317648229706    1.86215939189239
O          -0.94452586333382    2.94780053723170    1.94556121878258
H          -0.94685995655247    3.72215649094738    1.39167007735215
O           0.33333134586832   -2.41992209575467    0.34337088481923
H           0.79196684838440   -3.25914438273135    0.29457512132594
O          -0.29527146732992   -0.06699656275342   -3.46185834113362
H          -0.11113107664669   -0.81705635669828   -4.02856264761475
O           1.68154003501045    0.99334390590382   -1.89835171254345
H           1.23830888850777    1.69060026628083   -1.38881332083062
H           1.02073362244109    0.68004610119026   -2.54578574323143
O          -1.53870012888976   -1.02350033686308   -1.26696952051890
H          -1.59353620240575   -0.22782123492676   -0.71350433016199
H          -0.85128371464579   -0.40279212740680   -2.72623329347147
H          -0.91206876923018   -1.61430005029003   -0.82562212994804
O           2.03584080596014   -0.53057299345292    0.19716833346201
H           1.73976465563913    0.12802350107059    0.84660552775354
H           1.04626701548846   -1.70149799557907    0.22241177775129
H           2.02006636608813   -0.04228051053589   -0.66939970137925
N          -0.80922738033448   -0.94347933235180    2.21748709059784
H          -0.42091173661770   -1.71462341234071    1.61519643874742
H          -1.30262476184584   -1.27683618751772    3.03753545983142
H          -0.03543482264269   -0.25759848252663    2.42176737838688
H          -1.38302302878592   -0.30503267650832    1.58612054261670
