    26
        -50.44423764  Gyration_radius:  2.55662244177 Dipole_moment: 4.563
 S           0.88578512595060    1.22848864589169    1.78744429859161
O          -0.52455173237973    1.45546457992083    2.02839221261800
O           1.37294111288932   -0.00360325276742    2.36350785327673
O           1.23104886663845    1.36293831026771    0.36942862896629
O           1.67289625883077    2.41793297287376    2.48864002161723
H           1.48589927459272    2.29671852002645    3.41438479578659
O          -0.28159741248972   -2.15569581377636   -0.49032839024506
H          -0.04439031429898   -3.08060277158501   -0.41101207437584
O           0.67936166078082    0.21582062589458   -3.23752380144438
H           0.76822479658092   -0.32524509784621   -4.02324961581026
O          -1.39929575895169    1.83502419047880   -0.45634157273567
H          -0.60143459490989    2.24439884326993   -0.80272379830266
H          -1.20782290185851    1.71118025201608    0.49463414768979
O          -1.60528193359632   -0.25158185225339   -2.11654075264635
H          -1.38928258630835   -1.00906283191453   -1.55687476203601
H          -1.69100545455640    0.51813089808191   -1.50931044702518
H          -0.26817885251773    0.11037729380066   -2.91756386905967
O           1.66764662001423   -0.59538679252021   -1.05231091067834
H           0.92548795902189   -1.25380283300108   -0.79043201709939
H           1.38401661657860   -0.23070867256118   -1.98043524529467
H           1.56144858663194    0.24006596886300   -0.39372642562300
N          -0.98272125658500   -1.35174054983791    1.83784595818308
H          -1.57624552132109   -0.53010020508781    1.79733179618303
H          -0.61278499890982   -1.85665574463467    0.44731850594852
H          -0.08112324269440   -1.00792027859659    2.18198486852124
H          -1.36904029713650   -1.98443439500709    2.52746060500501
