    26
        -50.44499765  Gyration_radius:  2.55412342137 Dipole_moment: 5.302
 S          -1.18617065889459    1.47136170030295    1.34216426508433
O          -1.16131329789777    1.52647868818443   -0.13528440699187
O          -1.99704566098340    0.36737653469069    1.80078446886054
O           0.13930008882732    1.53555068903325    1.90028832948450
O          -1.93252117114131    2.79856145141974    1.78719242151042
H          -2.85028522985288    2.59666208630502    1.63144729380192
O           0.31781277965580   -2.15002836804721   -0.09203293163695
H           0.04489375481571   -3.06821567173352   -0.06669169151136
O           0.32170388672230   -0.15194685143127   -3.28262100024833
H           0.40581290681279   -0.79732984432491   -3.98568790538191
O           1.63668298461978    1.77213604550567   -0.29238056378735
H           0.93986802710107    2.13541068548579   -0.84674064794850
H           1.22815715746831    1.71025654795530    0.59278990255621
O          -1.27426137241970   -0.59282382336086   -1.36383659001457
H          -0.68752346934196   -1.23502356492099   -0.82479301268072
H          -1.29211847681116    0.33622304569372   -0.80757974624794
H          -0.72488769275160   -0.37966327671817   -2.21457477751504
O           2.16724674762410   -0.54036657235327   -1.51347915465687
H           2.13824697829652    0.31709832479683   -1.02955684517807
H           1.74838283347413   -1.18730801569705   -0.92988025753571
H           1.13588185785722   -0.24977031210933   -2.69979835364202
N           0.19683953484913   -1.25533343334463    2.30703811774429
H           0.25804503536430   -1.84095335145118    3.13065056483008
H          -0.72979903724090   -0.82222420875730    2.28212205893497
H           0.83906202107186   -0.47788142961178    2.42059455884347
H           0.31798950277454   -1.81824705550230    0.88986591332627
