    26
        -50.44423679  Gyration_radius:  2.556463335 Dipole_moment: 4.533
 S           2.12899198846655    0.74638638287520   -0.63615797213522
O           2.30922467520827    0.74395471925507    0.80125561603419
O           2.36876972920902   -0.54199659674389   -1.24425132193299
O           0.84045706195649    1.32337671382180   -1.02935460523076
O           3.20056254881313    1.75622812860289   -1.23445207680966
H           4.03582037245300    1.36177275731225   -1.00343534817443
O          -2.97651215740934    1.21624684288434   -0.80373860056552
H          -3.87285624698125    0.94069573651070   -1.00030672998875
O          -1.09853195419066   -1.93977545709888   -0.02302717640387
H          -1.25910042181468   -2.81644813061083   -0.37468525305386
O          -0.03559364590278    1.72043444311600    1.59696744704554
H           0.85579160213631    1.35168358307440    1.43663462949213
H          -0.18711509083749    2.29813284657773    0.84361720736517
O          -2.22890835490797    0.19587499893846    1.45375267939207
H          -1.43823080165654    0.74156492172578    1.66680650552329
H          -2.78042000952787    0.91922844996036    0.13669698182542
H          -1.89046935529777   -0.66325320983863    1.16926019687381
O          -1.03334199171050   -0.08057722865266   -1.78049248828138
H          -1.03017691678856   -0.86339703798695   -1.11688777843377
H          -1.84136030714232    0.50390276791198   -1.49780488979207
H          -0.17741148713718    0.51186499932130   -1.53663193528771
N           1.29132834838886   -1.91932971080358    0.89695275776943
H           1.74073206908892   -2.76157312749060    1.23426492927461
H          -0.14720276055051   -1.96043615508115    0.39263461760065
H           1.43223415730998   -1.18974474486560    1.58748025129070
H           1.79331895882620   -1.59481689270213    0.06490237661419
