    26
        -50.44091434  Gyration_radius:  2.70602296819 Dipole_moment: 1.940
 S           0.77325221201385    2.60348186753908    0.89454540602856
O           0.59824825173012    1.87466624174006    2.12111873778517
O           2.02302651760226    2.13216516976276    0.16479836270368
O          -0.34800972353880    2.66504753942123    0.01468130842328
O           1.17179434717884    4.07787912582345    1.27550908846926
H           1.79624942369334    3.99358353434093    1.99221965267918
O          -0.42520917629209   -0.36806656581391    1.10080949863704
H          -0.15475871446496    0.29894916998364    1.75118460534191
O          -0.02351041600581   -0.08671206858684   -2.66235315012327
H           0.08558876657146    0.57923636152152   -3.34146046327511
O          -1.09166230808030   -2.46510644376093   -1.31981193296599
H          -1.85595515552237   -1.89468162630356   -1.20364728598639
H          -0.50278896832471   -1.98452336537276   -1.91197055053674
O          -1.88197683879579    0.62854727644942   -0.94326216077772
H          -1.56470636263066    0.13836032216589   -0.16235594469609
H          -1.60242600027813    1.53635256955308   -0.75012304793679
H          -0.79359927194452    0.20534528947330   -2.10140892221712
O           1.59314302258502   -0.18270293912992   -0.55426629035083
H           1.89930597527679    1.10958312436196   -0.18066930595929
H           0.85711334154111   -0.39539826361637    0.08065564059539
H           1.15298223024169   -0.15916732626242   -1.43665013389909
N          -0.32778896644190   -2.99504319333526    1.50355904193644
H          -1.00464404548857   -3.54018530016438    2.02204126954676
H          -0.40244003524561   -1.28064113595948    1.48939536527871
H           0.58315414918182   -3.41307784423451    1.64478589993316
H          -0.55438225435295   -3.07789152983251    0.51267533135652
