    26
        -50.44986080  Gyration_radius:  2.52928313646 Dipole_moment: 6.787
 S          -2.68323977094178   -0.26318374743723    0.02237442506628
O          -2.42936145789251   -1.41626422613497   -0.82718084091295
O          -1.73669740995799   -0.24946856736559    1.15855657862206
O          -2.71707235074806    0.99514184056254   -0.66489467156687
O          -4.10991201129633   -0.52213877210924    0.65734637436254
H          -4.20901861597929   -1.45956020666677    0.52550565103076
O           0.04108249631506   -1.16705873409084   -1.51164053496924
H          -0.92839264423360   -1.37885147616768   -1.48968085515009
O           2.26598234691233   -0.06304624266655    1.45565072149206
H           3.07456474036425   -0.38944043815482    1.85184502588304
O           0.07526429349612    1.75682826580269    1.46949573975922
H          -0.69603828339740    1.16748945665794    1.54370606584046
H           0.84003771356751    1.25649176040945    1.77801625856144
O           0.30626562249103   -1.65335640247589    0.87920852796584
H          -0.57514657443742   -1.15133095887128    1.10446921702878
H           0.29476169611660   -1.53077696979434   -0.24238762062306
H           1.06581509399001   -1.07678574071656    1.20595077474692
O          -0.14938076722136    1.41242525469698   -1.16868058729515
H           0.06053253408088   -0.16500190297407   -1.48439485653343
H          -1.12634704287670    1.43028980421772   -1.20049369419407
H           0.03585541196169    1.69284984383789   -0.24208491645737
N           2.70546505376429    0.57155605592448   -1.06451330411580
H           2.66067916199880   -0.25407175024902   -1.65049162147811
H           1.90548894092439    1.14963360604030   -1.30710035962432
H           2.48652168960903    0.22153689836859    0.51004115943725
H           3.54229013339048    1.08609332933914   -1.30862265688139
