    26
        -50.44986097  Gyration_radius:  2.52928364479 Dipole_moment: 6.790
 S          -1.43379869814971    1.42987665381153   -1.78018004673677
O          -2.28941848757409    0.25410219017121   -1.81278438081752
O          -1.07931706770309    1.76323971108259   -0.38356972239101
O          -0.27776911584268    1.35692499053067   -2.62582898623554
O          -2.34601002744123    2.62073633111090   -2.28545853609325
H          -3.21735453413536    2.25880857129803   -2.16046473857363
O           0.85119592296346   -0.19036507793569    2.54891840725860
H           0.89230946625580   -0.45512775077539    3.46842134234341
O          -0.91551965074124   -1.56260913881967   -0.60916958743361
H          -1.53872554038824   -1.07537410393538   -1.20845390230062
O           1.49723259434021    1.66524349986705    0.48694232973956
H           0.62214766484413    1.95293081567300    0.17203684530818
H           1.37013342779876    1.30032927128632    1.37073443264672
O          -1.40030502680512   -0.06928698426351    1.27754446272852
H          -0.57014213539483   -0.05183252040236    1.84928032529515
H          -1.36149477105468    0.76537527261384    0.65940944909388
H          -1.21710645699780   -0.86814307017052    0.50372387121418
O           1.27682820866335   -0.31930076831020   -1.28616019771825
H           1.54418669093253    0.37232345354499   -0.63690731702612
H          -0.01502767295874   -1.21240069343382   -0.87611039468707
H           0.85869325052447    0.20972684212617   -1.99403385365919
N           1.79198159825598   -2.12456623445994    1.02576446781329
H           1.96832797542748   -1.66346222507401    0.13735487337691
H           2.64147220895493   -2.60276253902005    1.29833026092844
H           1.27061390938792   -0.93151999988032    2.00236696492144
H           1.07686627679951   -2.82286646661544    0.85829363101179
