    26
        -50.44499762  Gyration_radius:  2.55407790936 Dipole_moment: 5.299
 S           0.54504101680575    1.40051378473109    1.76493865114370
O           1.21497814354433    0.29421843749100    2.40832517633859
O           1.03326730600407    1.57658143540883    0.38030685541843
O          -0.89302885394343    1.36759881680895    1.82287315801474
O           1.00162932444209    2.71400538313088    2.52836146805200
H           1.92747090363943    2.56167478294388    2.69250352937651
O          -0.12446958007201   -2.14569074333496   -0.33454272262763
H           0.18200118522376   -3.05146416677409   -0.27250654567149
O           0.85426533003007    0.10663206200907   -3.18760200018397
H           1.06305805894599   -0.48137355138510   -3.91461666223223
O          -1.54424962970117    1.72471042036520   -0.73722031309493
H          -0.72362183903104    2.15986034317700   -0.98627745842941
H          -1.46669427355714    1.60657050263689    0.22938708335713
O          -1.46288228119630   -0.49778389663503   -2.21177164123192
H          -1.23244830592234   -1.17399300495795   -1.56043713985247
H          -1.66074659128556    0.31711821134330   -1.69501265162455
H          -0.10382146330136   -0.07047856039459   -2.93691244139467
O           1.70588264915536   -0.42832901823779   -0.86127485632627
H           1.01119623524409   -1.13501946524016   -0.60576667675698
H           1.47510508353014   -0.16741995986706   -1.83579932577481
H           1.46785176021237    0.45178071954808   -0.27675271486742
N          -0.90758604701199   -1.44742338337069    2.00418657387565
H          -0.48931040106912   -1.89603687465952    0.60287909758985
H          -1.21445351930330   -2.10066483881193    2.71422273276580
H          -0.06061288325680   -0.97863815322349    2.33552661500742
H          -1.59782130813147   -0.70694927269587    1.93298220912584
