    26
        -50.44986163  Gyration_radius:  2.52905112942 Dipole_moment: 6.779
 S           2.22228972131253    1.21672012545120   -0.91964358084754
O           2.72876567258041   -0.13958561309828   -1.05853284512767
O           0.83520817359066    1.29740508611073   -1.42665831617252
O           2.34687557110656    1.77416646581708    0.39590458314380
O           3.09247882889253    2.08758094443705   -1.91476123630671
H           3.46362901895924    1.41664597090735   -2.47857995761334
O           1.04010834397443   -1.58419512657117    0.24738116318830
H           1.86141384560024   -1.22040978206449   -0.17355304133359
O          -2.61312662963717   -0.49935452524309   -0.42306079255425
H          -3.41189932707590   -0.95123048238434   -0.69701764741682
O          -1.24454045854254    1.91539370432576    0.21717542403687
H          -0.52927247724382    1.94012560381159   -0.44265275663562
H          -1.92209024655760    1.32156745074192   -0.12734552133069
O           0.44315645024202    0.48912742368347    1.71779461477696
H           0.79061761202508   -0.88061970773907    0.91574624577135
H           1.24960551294868    0.99113200207356    1.48684333066797
H          -0.27033262693029    1.04659929881438    1.32878044541061
O          -0.36172900964162   -0.87872571511154   -1.64112314412584
H          -1.28205239695448   -0.70827209656513   -1.26562888058327
H           0.12217922981877    0.04089533068998   -1.68961822147084
H           0.22489762396850   -1.34103060767444   -0.80088822893756
N          -1.74346593780529   -1.52824728650854    1.84163511853538
H          -2.40261484395377   -1.72691670167655    2.58369893883506
H          -1.09200001613024   -0.82828723006330    2.18607767625304
H          -1.20573977023580   -2.36873275547999    1.66406082879845
H          -2.34236189431287   -0.88175179668470    0.47396580103441
