    26
        -50.44499769  Gyration_radius:  2.55417353353 Dipole_moment: 5.303
 S           1.11057051828219    1.02512945883143    1.75744369994951
O           1.39056171700201   -0.27793626968694    2.31447366516022
O           1.54189480980241    1.09611920322274    0.34482641358562
O          -0.24176341928194    1.48919504717577    1.92584536176128
O           2.04422409487636    2.05550957845101    2.52108847671565
H           2.86588105935858    1.58205387846485    2.61063644672138
O          -0.88978467758493   -1.94678480246230   -0.38731804670684
H          -0.91724315236632   -2.90456247238776   -0.37712359529550
O           0.63484466733149   -0.02220045238760   -3.24048332182446
H           0.57765945814693   -0.60610177654771   -3.99791221708960
O          -0.88375243108431    2.19265666063128   -0.56393790517145
H           0.02057161654507    2.32724671586634   -0.86217145565697
H          -0.79324690770400    2.00120192773996    0.38968373856445
O          -1.68048666649739    0.16489001085402   -2.10450594986753
H          -1.54671716863327    0.96833237905692   -1.55054627473385
H          -0.30665754252476    0.13170182330347   -2.92088980409676
H          -1.66150659147264   -0.58370804122117   -1.49311821364118
O           1.38940848176143   -0.94593849387778   -1.00444668845368
H           1.51223450561184   -0.07159189717086   -0.37736256011900
H           0.50877422340090   -1.38028475662107   -0.71639189446372
H           1.20392207315557   -0.56804495750056   -1.94994919553080
N          -1.22785122212480   -1.15170880023888    2.02599536893523
H          -1.61911336716388   -0.21540952332373    2.03153229619656
H          -0.25126190376006   -1.02420123506369    2.30326453336716
H          -1.69770288344221   -1.69675156839107    2.73817446399325
H          -1.08345928163887   -1.63881161671594    0.58319266774004
