    26
        -50.46584237  Gyration_radius:  2.39856299679 Dipole_moment: 4.270
 S          -0.03754478892706    1.30770665690174    1.34721173601767
O          -0.80891519378623    1.36311832174963    0.08364356136740
O           1.10690672743968    0.24867602549635    1.08287782289745
O           0.69317737646884    2.53939664229232    1.54939526992316
O          -0.85057465175150    0.82771566869689    2.43631213472751
H          -1.73676156907055   -0.45226768088311    1.98363606282876
O          -2.16980164957485   -1.29939041623761    1.70045436699808
H          -2.65337472147283   -1.60927445622789    2.46780275661375
O           0.18542118494128   -1.66565114883199   -1.79097019714615
H           0.05561033553970   -2.21358595875681   -2.56572322391147
O           2.35082318916979   -0.00536663373226   -1.37216753075630
H           1.61846819843957   -0.58697884460105   -1.65408046169540
H           2.42735350282879   -0.16514168213782   -0.42223038897545
O           0.27098978950746   -2.17555165528257    0.92996496164845
H          -0.65902147750312   -2.06124057344523    1.20743605930733
H           0.27402327324039   -2.21996126868208   -0.04130928963139
H           0.77703529403321   -0.70262273186097    1.12646675186279
O          -2.09246037400796   -0.65491238501067   -1.01459097602226
H          -2.40944245869678   -1.09582885297828   -0.21428670448556
H          -1.73074549437126    0.19186578863652   -0.67671180290689
H          -0.70378443984552   -1.26088888403903   -1.57918564802172
N           1.25264311523194    2.36967594531556   -0.96035326404952
H           1.40604059921224    2.62968596579142    0.05045628231652
H           1.82563965840401    1.51862466545981   -1.23087177596646
H           0.24846973682225    2.02227622227157   -0.84397649742512
H           1.35982482771325    3.14992128008584   -1.59919999551039
