    26
        -50.44986098  Gyration_radius:  2.52925661752 Dipole_moment: 6.788
 S          -1.43719852877695    2.17732952493426    0.68031851527770
O          -1.09985622832234    1.79246237856071    2.04181184210315
O          -0.24319377964938    2.08025670672313   -0.18699057231649
O          -2.56493752698542    1.48938930500352    0.12205668249667
O          -1.78409486089859    3.71973880536731    0.75926582184598
H          -1.37792722635544    3.96371146874775    1.58474490046343
O          -0.15359466520486   -0.59233784171152    1.81014766777557
H          -0.59796655034252    0.23212364199352    2.13837170096642
O           2.20474393618568   -0.92675778766090   -1.24000797806777
H           3.09686152905130   -1.24961640044798   -1.37117686756671
O          -0.13952895781384    0.32516360480093   -2.26429455457990
H          -0.21995280614578    1.12154669809058   -1.71022169970533
H           0.77708529463412    0.03169916206528   -2.20054424110991
O           1.62417621041728    0.68528629733827    0.70027276404446
H           0.91922536245454    0.02560821376052    1.28198000226491
H           1.92974707984083    0.12919917260269   -0.08316574559243
H           0.93602595874008    1.37333734767498    0.33485194801272
O          -1.55566443973689   -0.91118470192939   -0.36779972684858
H          -2.16658407586804   -0.17037996848166   -0.18413747609711
H          -1.08663517544739   -0.60114351132483   -1.17728482705553
H          -0.70195875979161   -0.84952307068512    1.01141375199532
N           0.68951018100759   -2.86591420657580   -0.29667108780744
H          -0.25573990674508   -2.52737225827111   -0.45444076804538
H           0.80797483401294   -2.95185455235791    0.70614757116595
H           0.75688934322128   -3.79086978314379   -0.70227311231269
H           1.64259373850674   -1.70989823508133   -0.93237451130621
