    26
        -50.44986173  Gyration_radius:  2.52903462834 Dipole_moment: 6.781
 S           0.93793265831438    1.72776973569325    1.84373948504676
O           0.46429471650850    1.99527183923638    0.46812081285559
O          -0.15355901635032    1.21964434164184    2.65951714422243
O           2.12487849964492    0.92295051051811    1.85635304442289
O           1.28924800136380    3.14406818451767    2.45726837994461
H           0.50662919371719    3.32951175990210    2.96615061537709
O          -0.96834379724800   -0.87615171504717    1.39766737221296
H          -0.73600969375049   -0.21380982817561    2.09825776859849
O          -1.14405053907934   -0.28097259174251   -2.42183708375145
H          -1.81811525338520   -0.39891403875217   -3.09191456212282
O           1.44977345636100    0.62394343690516   -1.66687056148509
H           0.64571526409980    0.50953590934535   -2.18716729068786
H           1.25536524735233    1.29782650578737   -0.99183515125774
O           1.40824705747161   -1.13314229644045    0.34505249747257
H           1.52005190094849   -0.62111844066278   -0.48942524917511
H           1.85322825256823   -0.56194956704110    1.00179829221031
H          -0.08071465607413   -1.11351844664013    0.99878105371995
O          -1.67049987701939    0.87930816752418   -0.16998522689418
H          -1.50792772213838    0.51611334277095   -1.09682245666468
H          -1.48822318504725    0.01800813223069    0.52625814062022
H          -0.84590199552442    1.46497511744210    0.07643335661301
N          -0.60709407653919   -2.59700313048668   -1.28598547342316
H           0.27874433282591   -2.43138641311633   -0.81599934621746
H          -0.92494497775063   -1.19621372534102   -2.04938437185311
H          -0.49995698209727   -3.42156144223893   -1.86324575231212
H          -1.28876680917419   -2.80318531785435   -0.56492543746667
