    26
        -50.45276058  Gyration_radius:  2.54812096815 Dipole_moment: 4.932
 S          -2.44107528390063   -0.71659840854672   -0.91265441583201
O          -1.98151805507652   -2.08661253660158   -0.86375729054010
O          -2.92540889836082   -0.26019568978024    0.39389966038511
O          -1.46609183435188    0.20739456894188   -1.46740649768667
O          -3.68675886684237   -0.67906092199611   -1.88452125004480
H          -4.21938188362260   -1.40610761981957   -1.57672371161836
O          -0.81630606498965    0.21894930379791    1.59521300282050
H          -1.78474568616624    0.03044798521411    1.23792420756797
O           2.26584321937834    1.58344614074694   -0.37134800065651
H           3.02172720513632    2.16988670099012   -0.40754673210931
O           1.12205053627355   -0.50465114850789   -1.81552869643912
H           0.19383235156177   -0.24377694178356   -1.95444346791299
H           1.59766126632338    0.29409513753117   -1.54269328920484
O          -0.35289329529484    2.10703618410956    0.01712059969795
H           0.59577988522773    2.06708221436677   -0.21745473950121
H          -0.83484805179438    1.61442891307651   -0.68098712087879
H          -0.56645484802032    1.09145950797661    1.05807569788958
O           0.29157259056614   -1.67473067781692    0.37339867178799
H           0.75503124485324   -1.31859608729107   -0.43454048019474
H          -0.26966417184129   -0.57337583113188    1.15402122070088
H          -0.52649743345758   -2.06516262050885   -0.00954283297051
N           2.42533081525396   -0.02926754239015    1.76517370277436
H           1.86306606906559    0.31762444831178    2.53322193718707
H           2.38144919535877    0.99715109459955    0.42870185658746
H           3.34828896045117   -0.23795641031710    2.12483699792914
H           2.01001101427525   -0.90290975317644    1.45756099026504
