    26
        -50.44091437  Gyration_radius:  2.7058856002 Dipole_moment: 1.941
 S          -0.73598588285364    2.28701756073817   -1.55036231864130
O          -1.60491225043280    2.37210229753388   -0.40847815788182
O           0.69779527185338    2.61461930996355   -1.15824635909324
O          -0.80085424151922    1.08944314166265   -2.32296554693349
O          -1.08391520264088    3.49440879579921   -2.49836650612307
H          -1.20540352285758    4.24348096455893   -1.91970277650843
O          -1.01284309342138    0.02370913427484    0.71099160783316
H          -1.46908776630491    0.86089745995115    0.53210944407013
O           1.98958651515730   -1.31351559511491   -1.18802144176458
H           2.42328710132702   -1.22102396945857   -2.03645005279128
O           0.82305033703530   -2.64923193867399    1.14654169699697
H           0.13143203585292   -2.86414771098643    0.51517597279094
H           1.53299819180102   -2.26007918097495    0.62407540253231
O          -0.61737684931366   -1.49573959353704   -1.48669138926691
H           1.02281910008053   -1.46200747708326   -1.37926229425917
H          -0.89607756358091   -1.14452853708331   -0.62086384049886
H          -0.77901636561312   -0.74647589771730   -2.08006642099222
O           1.45532656477723    0.80407720815387    0.32775921376735
H           1.09474434983830    1.84977150477741   -0.49650887449715
H           0.56262510443605    0.46140747681709    0.60329465168759
H           1.83178969795112    0.08121033795207   -0.22780246304534
N          -0.68598585210624   -1.02952184825392    3.13123608010769
H          -1.09195285579029   -0.23317373750855    1.66592752461008
H          -0.07161942001247   -1.70139406753061    2.67178334865380
H          -0.12792443042194   -0.51015021666812    3.79705971805946
H          -1.38249896364230   -1.55115542135203    3.64783378066557
