    26
        -50.44091457  Gyration_radius:  2.70628748105 Dipole_moment: 1.937
 S          -1.80259855179797    2.05644681182522   -0.83609395753168
O          -2.09344713342877    0.97839281466411   -1.74130564232334
O          -2.31297112665945    1.73527785754174    0.56148250920027
O          -0.45521641405856    2.52391401758912   -0.80068005913305
O          -2.72525609356878    3.26790739560551   -1.23440473398632
H          -3.57887385165287    2.88467185267795   -1.42199518936601
O          -0.12330562479543   -0.67283674967953   -1.02758730410370
H          -0.86035480081446   -0.29567515730454   -1.53305963420028
O           1.41174375607921    0.81887615662773    2.10499572635842
H           1.49036948825693    1.66035311599936    2.55475323552154
O           2.24381953289626   -1.74966497838967    0.95710489762399
H           2.64671698044928   -1.17462741731535    0.30119482717749
H           1.93751934148057   -1.16232177096773    1.65685711242436
O           1.84107335116581    1.09610016712197   -0.47560249287098
H           1.66835986529582    0.98065508871437    1.15576462959362
H           1.31434164270032    0.34216212057391   -0.79957495629723
H           1.26680799918946    1.85276599907041   -0.66853889964797
O          -0.96128956514687   -0.14613624758491    1.39478845705456
H          -0.15530999734108    0.21791997441366    1.83165560617518
H          -1.75550389863760    0.90700721520124    0.98928562709928
H          -0.63258101137804   -0.48511544725651    0.51899151654378
N           0.31761051491712   -3.27698180099958   -0.71500759067042
H           0.75240119773271   -3.88807911029152   -1.39444807580404
H          -0.08970298699830   -1.65995842225980   -1.12079034227240
H          -0.37804037776318   -3.81397448689488   -0.21278956191629
H           1.03368776395685   -2.99707899860013   -0.04499571464401
