    26
        -50.45276009  Gyration_radius:  2.54806869195 Dipole_moment: 4.932
 S           1.97496397963311    1.60894178977714   -0.90356054834625
O           1.98497474690742    2.15134947250954    0.45862221018911
O           2.79588829040350    0.42365601961848   -1.01320969981728
O           0.61764078859165    1.42683503646288   -1.39003049437493
O           2.62936875775424    2.71324087949625   -1.82543898239601
H           3.54965047754716    2.67537993914856   -1.58309852060538
O          -2.64515756536933   -0.84070496352975   -0.27678903539583
H          -3.56777082572018   -1.09621374048783   -0.27756638137719
O           0.41749968509408    0.64113720251728    1.63508677809231
H           1.12474046056632    1.33585256596924    1.29169508878051
O          -0.38646713240271   -1.03572703275859   -1.89332387658020
H          -0.04763853890155   -0.12596903029185   -1.97408579945926
H          -1.29112004098463   -0.96660724870779   -1.55359677488326
O           1.18625530074621   -1.26019600114280    0.18643131361980
H           0.69417582906228   -0.22727233592557    1.09552620798973
H           0.57194282931201   -1.34787414556795   -0.59422672451573
H           1.96301321179921   -0.80321206968386   -0.20889853018817
O          -1.46905602879397    1.53072547202311    0.24957801904019
H          -0.83263807313105    1.68646254636944   -0.48041033697024
H          -2.02115608043067    0.76940544975420   -0.01871894025619
H          -0.46322254846836    1.00637364295714    1.18455884255262
N          -1.31579684478845   -2.11255777655579    1.67412482272964
H          -2.19482151313661   -1.35137000013976    0.45363232952490
H          -1.68050328873238   -3.00492259007641    1.98298338165598
H          -0.39002339918940   -2.27416539430352    1.29050691101097
H          -1.20474246735438   -1.52256768743377    2.49020875997778
