    26
        -50.44499765  Gyration_radius:  2.55415323786 Dipole_moment: 5.301
 S          -1.30372782886779   -1.75769843172333    0.76411574597617
O          -0.27411297531839   -1.88096650123432   -0.29003654087656
O          -0.69174935766407   -1.61941345108827    2.06527127031774
O          -2.28555103459880   -0.75730268961316    0.43586365878073
O          -2.05764099117126   -3.15345005385634    0.76293834444823
H          -1.45765966085715   -3.72696267047677    1.23029860843167
O           2.33109121672444    0.10636596328110   -2.33617809280376
H           3.16414298009846    0.53955309356510   -2.52663443849208
O           1.12955227286021    1.63299749350922    0.88847957942853
H           1.73238503015190    2.02592249718592    1.52124927834519
O          -1.44074175333507    0.06251996153777   -1.95585895516507
H          -0.95577017950199   -0.74055691388344   -2.16733784543863
H          -1.88079585109874   -0.14212237946797   -1.10808379623995
O           1.83798845481780   -0.67510763863059    0.02374215523439
H           0.92684189050040   -1.25334568712166   -0.06726495151789
H           2.11149638787185   -0.45974714014597   -0.95085484090963
H           1.56385641707463    0.22503338828614    0.42603074369597
O           0.50997297711289    1.88101559530065   -1.86616551429848
H           1.63010610423239    0.82721631169545   -2.30239690325280
H          -0.30451413574185    1.33574661328298   -1.96392797966260
H           0.61732348826820    2.02759793804893   -0.91667414980890
N          -1.05510443987913    1.13125209798621    2.13195035435665
H          -1.35150635143249    1.61771554949216    2.96892517028637
H           0.23409973551860    1.48761218137666    1.38972183703699
H          -0.89836421936592    0.14717260288951    2.36405528355975
H          -1.83161817643205    1.11895223984479    1.47877199857446
