    26
        -50.44986079  Gyration_radius:  2.52936128722 Dipole_moment: 6.789
 S          -1.74910624172038    1.83714274789483   -0.91444503537384
O          -1.53934569064175    1.35545525013763    0.46810691237303
O          -0.55671289740404    2.51902589499332   -1.39282743165094
O          -2.23729465400213    0.80070099680921   -1.77705116632771
O          -2.85748523194758    2.96249110434993   -0.81171976748813
H          -2.32560978985750    3.75164233171222   -0.79303930288327
O           1.06142995904147   -1.19294824302704    2.16897864137392
H           1.66767043333463   -1.38887359342227    2.88410001335933
O           1.31255731441398    0.76140390892483   -1.16156958173102
H           0.74340946329557    1.51848581976494   -1.45811694324978
O          -1.56081439282565   -1.30068387707344    1.06113786404287
H          -1.78877028683898   -0.36077822670691    0.95049241330413
H          -0.84960461965261   -1.34151149371274    1.71147378149922
O           0.83779565365489    1.19930886036629    1.20656478670735
H           0.90680374003368    0.31197825607809    1.68040191122752
H           1.20211796545124    1.00951449837273    0.15727690962761
H          -0.16895045903028    1.35748957285970    1.00140229851308
O          -0.47129436666472   -1.13253935697712   -1.37122966311104
H           0.72788473032581   -0.03974256785140   -1.30631179910968
H          -0.87236125322577   -1.38224806032887   -0.50629156220659
H          -1.15866641575449   -0.55718325901501   -1.76138241290616
N           1.99745381883511   -2.18735025461116   -0.08516095793663
H           2.68239525087330   -1.56041280625540   -0.49118000818766
H           2.38291098833476   -3.12325526930275   -0.09370196881330
H           1.42454309904452   -1.63667657899123    1.33520926909022
H           1.18904388293526   -2.18043566498945   -0.70111722013157
