    26
        -50.44986113  Gyration_radius:  2.52923603244 Dipole_moment: 6.786
 S          -0.78951176863813    1.56943001021580    2.04506679838876
O          -0.49986317257397    1.93877139006270    0.64252840319982
O          -1.93137245193489    0.67020282490629    2.10040666150855
O           0.37994261832687    1.10081543248764    2.73026854413829
O          -1.27697603105342    2.90225918799833    2.74609276219629
H          -2.22268635887498    2.80195423220947    2.70733249670469
O          -1.24811866776251   -1.31437051525748    0.60611936969488
H          -1.64654177347342   -0.74271825774209    1.31265735123257
O           0.50058788114101   -0.14657770820229   -2.64251378765393
H           0.37197027298067   -0.31546982440465   -3.57643856890052
O           1.84489960966712    1.24465695580890   -0.55158109731986
H           1.53194983473455    1.02097189390035   -1.43611490692530
H           1.12135114343708    1.72205226711698   -0.10857116697964
O          -1.48598012395502    0.44248693966792   -1.09173096700672
H          -0.74626634772282    0.29538196546391   -1.76099194238056
H          -1.45574565466472   -0.45165340677684   -0.40748202839106
H          -1.15312172389531    1.16727467395300   -0.42469596440715
O           1.26147920520605   -0.78185860720316    1.08692965713430
H           1.08173969462006   -0.23698107707390    1.87846914401437
H          -0.26347193881687   -1.24832607330387    0.78134442362113
H           1.64343169164378   -0.12355697457636    0.46077707609579
N           1.01395918448794   -2.40986976665521   -1.39372332022510
H           1.40120501105083   -2.10743538251108   -0.50402290846768
H           0.74990338029624   -1.02586200677180   -2.20807814829183
H           1.66400712207848   -3.06808626100087   -1.80449894219638
H           0.15322936366485   -2.90349190232031   -1.18754893878969
