    26
        -50.45276055  Gyration_radius:  2.54805081758 Dipole_moment: 4.934
 S          -2.51613862129252   -0.33457077343535   -0.92868403491892
O          -1.87025622191290   -0.60640626775488   -2.21666719659161
O          -2.58803483512319   -1.52114181028628   -0.10555162982086
O          -1.90663544703005    0.80347020088804   -0.26121182733790
O          -4.00143897482699    0.09202108631385   -1.25946051421797
H          -4.39974295618668   -0.72500529564193   -1.54377644105587
O           1.83452031804203    1.70503569524757    1.22750834342415
H           2.52002957032491    2.28040024581972    1.56741193173472
O           0.52637731873414   -0.64162795619418   -1.60283726258671
H          -0.43870941407161   -0.69335909835068   -2.01102224377225
O          -0.54341748856019    0.51990431962598    2.05997527128168
H          -1.20068059895181    0.75508515444921    1.38052850019953
H           0.21278541820371    1.11195615278047    1.93227904793106
O           0.41807854185072    1.80200029382284   -1.06777979475142
H           0.91717611938684    1.94391718734878   -0.23882843936089
H           0.62531673295785    0.39616536647993   -1.44281144783482
H          -0.52160040541113    1.68349337762917   -0.81239099645856
O          -0.07508514598091   -1.62124138084488    0.62961433139303
H          -1.01470280432689   -1.82642042035736    0.42111629477521
H           0.37757941181074   -1.08044057868406   -0.65055203989810
H          -0.16178676471777   -0.88667727440189    1.29845085655593
N           2.82350706922549   -0.73111083878536    0.70055633830459
H           3.03185912451171   -0.84005934480812   -0.28487547958428
H           2.06498752222529   -1.36861132389103    0.92081973133702
H           3.63670523816356   -1.02842956923853    1.22495605365137
H           2.24930729296604    0.81165287227192    1.06323261759116
