    26
        -50.44499768  Gyration_radius:  2.55413345868 Dipole_moment: 5.302
 S          -0.82014643374044    2.09026505204893    0.57559778609970
O          -0.91751326615314    1.65160567563950    1.94844685670830
O           0.53686270879535    1.84612637303960    0.04131835863913
O          -1.83926538040519    1.58426808958174   -0.30636479086251
O          -0.97424218020043    3.66902959642758    0.59137543401714
H          -0.48024542377973    3.92984968904952    1.36289585655178
O           0.00389172190398   -1.99207950988514    0.87348789647884
H           0.10046237129826   -2.62589847152956    1.58562822115603
O           2.91925491135510   -0.90878858000315   -1.24715610592970
H           3.54934439702921   -1.62877653022112   -1.19714562316633
O          -0.38036570104115    0.62034228742692   -2.31841308684083
H           0.38944997541956    1.17227006440717   -2.15230485949574
H          -1.04433397706862    0.93951304759432   -1.67689863984634
O           1.75491433939872   -0.11834507696183    0.86047018864795
H           1.04569556515509   -0.85321794997996    0.92503118210851
H           2.33068738031612   -0.37443248814329    0.03943934363568
H           1.23007993663943    0.77989348538292    0.55959077116749
O           0.59083477171196   -1.82849319437929   -1.89434490610938
H           0.13850815936192   -0.99866527078387   -2.17197641064169
H           2.07355951321667   -1.28963652351495   -1.63703449907717
H           0.22085998092275   -2.05469195772353   -1.03032815642880
N          -2.18658841889710   -0.72370351551693    1.27775807048705
H          -0.91090328099271   -1.52693667231256    1.01859467611613
H          -2.54910073338544   -0.36792127820866    0.39924644682259
H          -2.96110790765201   -1.09365344050451    1.81468453983236
H          -1.82059300920005    0.10207710906433    1.75840147992075
