    26
        -50.46126430  Gyration_radius:  2.44974703881 Dipole_moment: 8.825
 S           1.70400008278523    1.30936302938092    0.10006020502692
O           0.84567423775158    1.35167523762257   -1.09659909408528
O           1.05769311013201    0.50184172412376    1.13264583789864
O           3.04329118369194    0.89155426817211   -0.19932206266588
O           1.76851202980240    2.78764610281013    0.64069553050443
H           0.85785530595983    3.03189402849114    0.83289338798899
O           0.03489755967958   -2.27375764182616   -1.13267130220241
H           0.09153227762154   -3.13149860596142   -1.55638656204712
O          -2.45153756157919   -0.28720846565707    1.47180126211545
H          -3.21697183652577   -0.81996356123896    1.68951998994519
O          -0.94409809952860    2.18200026577009    1.19811277550987
H          -0.26218333677931    1.48888227194401    1.30150816431358
H          -1.70745906523314    1.85827889371498    1.68443252672181
O          -0.27841595409164   -1.73889074973445    1.62132233149668
H          -0.15768155810385   -2.14490342571166    0.75036291358400
H           0.34481239350991   -0.98749078407414    1.62078747224393
H          -1.65278481870883   -0.84899605019957    1.67804221346218
O           2.18890618240056   -0.96902648878539   -1.86507953199312
H           1.85377806521773   -0.29620787352849   -2.46538572816701
H           2.66004026070764   -0.44122473567055   -1.18541677795700
H           0.89416983167279   -1.81175801988594   -1.33846970293853
N          -1.36286944316679    0.06777395800165   -0.98455112891815
H          -1.84051446288841    0.10886911640818   -0.05527672835571
H          -1.98251540445457    0.37397471574672   -1.72656840700778
H          -0.46845962453611    0.69464830878815   -0.97388684739712
H          -1.01967137533694   -0.89747550870023   -1.14257074707735
