    26
        -50.44499763  Gyration_radius:  2.55411350876 Dipole_moment: 5.299
 S           0.03808553107346    1.35325615759486    1.88184668704021
O          -0.21454121703746    0.18875356299175    2.69838125292617
O           1.19855597285362    1.12949483209985    0.99316463342329
O          -1.09958117203801    1.85562283550880    1.15679269158157
O           0.49617223242167    2.50850433428436    2.86768255224980
H           1.05612978921529    2.05580058123298    3.49125561661413
O          -0.75013308645950   -1.97738429446502   -0.50972254158538
H          -0.89917609618419   -2.91228658994631   -0.36161037675004
O           2.35004372607957   -0.69039628749573   -2.21398625477880
H           2.66014664945251   -1.41609459976362   -2.75721007576634
O          -0.12454143476161    2.03734902043580   -1.31757323412360
H           0.79813329007704    2.10119436536183   -1.05413850682067
H          -0.61401460991083    2.04517582862074   -0.47222604112025
O          -0.15591347000171   -0.25602723959371   -2.68146936597077
H           1.42154482695527   -0.46694729637861   -2.53035906878309
H          -0.58088006062019   -0.86378465765649   -2.06131792577217
H          -0.25992163826627    0.64251550993716   -2.29156491808952
O           1.58152079649177   -1.14417786999591    0.15817755728840
H           0.64644704395300   -1.50258211800411   -0.05270011155410
H           2.01351002072563   -0.96600216862758   -0.76516217358178
H           1.43637999543588   -0.16106935328418    0.58866575613936
N          -2.29360978831445   -0.69941338241435    1.08875616788757
H          -1.41917613117429   -1.47441064051093    0.10149669842126
H          -1.63994739756126   -0.52697054350048    1.85677814789645
H          -2.49607376345121    0.22166961808422    0.71410560630378
H          -3.14916000896769   -1.08178962450187    1.47193723692353
