    26
        -50.46126416  Gyration_radius:  2.44985185327 Dipole_moment: 8.827
 S           2.13392707718353    0.10503427567968   -0.25335306862467
O           1.32762435146445   -0.45160166487940    0.83106552835186
O           1.26616365432800    0.39987365320606   -1.40683620841467
O           2.92411557562271    1.23513293338736    0.14219269021936
O           3.11781840136682   -1.02968202439638   -0.72885414608068
H           2.55618562955677   -1.76885292035056   -0.98193982847384
O          -1.89118832167056   -2.07847959075112    0.60207605683292
H          -2.77384514893586   -2.32634163733324    0.87880177285836
O          -1.45544802652952    2.01012467916027    0.54289423891436
H          -1.96861524198215    2.78898355704968    0.76310789461288
O           0.68237641619571   -2.48063219850881   -0.68606758127166
H           0.85476377185463   -1.80326927576974   -0.00231765427632
H          -0.03677938498628   -3.01382675638379   -0.33608754173482
O           0.89874374087153    2.89132736198877   -0.20518572036975
H           1.69198903924719    2.40747468242326    0.10980752297463
H           0.91146305161204    2.73080095196343   -1.15353744496264
H          -0.53513163344633    2.33832123457114    0.34417908718381
O          -0.94202134379821   -0.22522938084573    2.18827912918110
H          -1.22152051928993    0.62460842278258    1.81724907916615
H          -1.53323264426361   -1.47878355104339    1.31514286423296
H          -0.01268666317192   -0.31414615235176    1.90287897538139
N          -1.22390421619906   -0.12080903898779   -1.14925730938892
H          -1.52328687131156    0.69761924815640   -0.58801580665259
H          -1.42998197614576   -0.99332256414940   -0.61115618984171
H          -1.67235448453006   -0.13904335673551   -2.05857522358509
H          -0.14517425304349   -0.00528089788092   -1.27649111623147
