    26
        -50.46126417  Gyration_radius:  2.44983117274 Dipole_moment: 8.826
 S          -1.36319447423136    1.55740627705111    0.58723013025243
O          -0.11939725095796    1.37512687942682    1.35550158718803
O          -1.30827614043147    0.74398082227880   -0.62570369176229
O          -2.53664979074301    1.32623470616685    1.37937957918787
O          -1.37621741910221    3.06593138485318    0.13338237410749
H          -0.58097391505807    3.18309583576559   -0.39552669270645
O           0.01331810003661   -2.32308811369244    1.02806791675315
H          -0.02313633597375   -3.19267510485411    1.42923441039998
O           1.61715354976828   -0.54168900251620   -2.31317481935040
H           2.13846039975303   -1.16603224075934   -2.81868639369500
O           0.77208071590970    2.09953379961726   -1.44387529603211
H           1.22525177990261    1.70140626093194   -2.19218965525098
H          -0.00523497893339    1.52880916647210   -1.28230448305347
O          -1.44312410553034   -0.76752338405565    2.55688689787385
H          -0.79595182251328   -0.20356525818544    2.99086226434960
H          -2.03918385761433   -0.12184651126860    2.12061347020283
H          -0.61033729081598   -1.75319796101050    1.55763708569091
O          -0.66169590928581   -1.62904772758769   -1.62334569837223
H          -1.09977019088941   -0.79392750984156   -1.37095370944761
H           0.71703073065732   -0.95762113103596   -2.19910271356715
H          -0.50827784879576   -2.07840842894281   -0.77921645620117
N           1.62586869340286   -0.21724992872333    0.37745035219164
H           0.91583277669088    0.53729432608876    0.72334402121219
H           1.71252790274988   -0.17728263252044   -0.66379827004702
H           2.52394132170088   -0.06728038420680    0.82384751723239
H           1.20995538030378   -1.12838411945134    0.64444027284425
