    26
        -50.46126414  Gyration_radius:  2.44987971069 Dipole_moment: 8.826
 S           1.13005318993736    1.38684192288899    1.19525122775089
O           1.01868840518281    1.24682665775036   -0.25524889115850
O           0.09415420914962    0.56679702213276    1.84710429249135
O           2.44507734136711    1.11161754603455    1.69813218714511
O           0.78274321207451    2.88327089103926    1.54441213839541
H          -0.09980387219422    3.03244040754763    1.19124105979172
O           0.59872052487835   -2.45574349408970   -0.25273016357728
H           0.86605039632634   -3.37227256310380   -0.33623071226384
O          -1.86482043153808    0.21724527252765   -2.17637275920380
H          -2.34029969589181   -0.20629230254701   -2.89166532553683
O          -1.38758371461617    2.26549606026785   -0.17146852970988
H          -0.50147153085405    1.89743171717522   -0.35965719068269
H          -1.88164727248140    2.16251445824771   -0.98957533164784
O           0.66130827806172   -0.46444335972476   -2.25249081958702
H           0.74323975146084   -1.27725148122686   -1.73225690711946
H          -0.89706611422929    0.03349207382166   -2.33721960219511
H           0.97346876828698    0.23590834657431   -1.64827656344423
O           1.98190766917129   -1.48609850562535    1.75358557162337
H           1.32584620240447   -1.36894313805401    2.44725266868409
H           1.18724967088220   -2.06398985446491    0.45031335038747
H           2.36248766572409   -0.58694898140338    1.65742657050221
N          -1.46638808647031   -0.76255049748544    0.31898334368319
H          -0.84792094241413   -1.55809656078117    0.07603538901261
H          -1.73843591307610   -0.26517276110175   -0.55956228496587
H          -2.28526144496742   -1.06531710177625    0.83481178261111
H          -0.86029626617186   -0.10676178462317    0.94820547901532
