    26
        -50.46214870  Gyration_radius:  2.45510430581 Dipole_moment: 8.525
 S          -0.46100667671071    2.01520358677821    0.54621960059237
O           0.93868626731194    1.85443861859829    0.13274986182076
O          -1.23135588708684    0.82215937675094    0.17577851804061
O          -0.59554037524398    2.33408137860962    1.94142191965746
O          -1.02825287808860    3.21705421150316   -0.28416367839376
H          -0.92438840978730    2.94069533647474   -1.20394825844279
O           0.48396773836315   -1.27405789972362   -2.43207338309018
H           0.47802398884197   -1.96162135056685   -3.09853960990738
O           0.69489732104946   -1.81630021250291    1.74174879077700
H           1.10171554677897   -2.27919852169877    2.47558674451304
O          -0.78496536797922    1.41294885457795   -2.36182934427469
H          -0.20666526353812    0.72917720913858   -2.71641227555210
H          -1.10633948022183    1.05705472203848   -1.51480559495058
O          -1.13643234840974   -1.76674974289217   -0.43148675200786
H          -1.32174673860545   -0.83480462908531   -0.19945512903682
H          -0.23456781517723   -1.50334133996366   -1.78085121246539
H          -0.61499411479994   -2.10400844432593    0.30785834457601
O          -0.94460513575351   -0.10906881464260    2.82886677569190
H          -0.75417834378506    0.83601972750452    2.62364226435614
H          -1.80528914893431   -0.26322202385500    2.43032238529084
H           0.08878257980362   -1.13581108076772    2.15863980669668
N           1.89834599682684   -0.45677335528683   -0.27391916500427
H           2.91139286113740   -0.42249402294134   -0.27776403271301
H           1.52509997553410   -0.79940427015142   -1.18177455139914
H           1.53609219886402   -1.04491465533759    0.50694546155227
H           1.49332352960987    0.55293738176829   -0.11275748632711
