    26
        -50.46214876  Gyration_radius:  2.4549942658 Dipole_moment: 8.525
 S           0.29350109750841   -1.02955077113695   -1.85033982779872
O          -1.06900501248501   -1.19309817646751   -1.32786494277277
O           0.98148204828445    0.04433531192427   -1.12390228472273
O           1.04353894619063   -2.25583576742757   -1.84055796482146
O           0.13911369410153   -0.56528946818014   -3.33902855216220
H          -0.35650607334854    0.26188511788410   -3.27970003437113
O          -1.39123780657470    2.30532804847404    0.72033868230061
H          -1.59270560691347    3.12310372064647    1.17609561182108
O           0.61425343692946   -1.04220734707358    2.31467039591305
H           0.72080694104713   -1.64275282214079    3.05383240632474
O          -0.77069581788986    1.74708723786401   -2.13355358936183
H          -0.01037839793708    1.30984104277849   -1.71158535278946
H          -1.31403375667888    2.06231736247610   -1.40324844357545
O           2.23249567297194   -1.92191500373024    0.47313967384126
H           1.79483946600110   -2.18850695532706   -0.36879463582788
H           2.78873141603518   -1.18045349497550    0.21965675105411
H           1.21111004190953   -1.39881068520480    1.59291557158795
O           1.06997945524283    1.49075060861995    1.10753913676263
H           1.05982281954086    0.79226144002043    1.77405334899067
H           1.17243829349090    1.01999481181561    0.25625469264642
H          -0.41564340504202    2.14432551866186    0.84337874959409
N          -1.66086653899014   -0.37340103633322    0.99721283315863
H          -1.42250183870389   -0.72415365719193   -0.01748532457441
H          -2.52679581203189   -0.79660906176051    1.31107447620799
H          -0.85619448153300   -0.65144828375427    1.59894380719138
H          -1.73554880112724    0.66280233954119    0.95695482538449
