    26
        -50.46126420  Gyration_radius:  2.44982332029 Dipole_moment: 8.826
 S          -1.60381697657044    1.34781813741481   -0.48998128828087
O          -1.78596445269225    0.40279788851555    0.62549197472490
O          -0.20599071104049    1.33201035503603   -0.91632008400779
O          -2.53172478868804    1.11958342461117   -1.55994858916619
O          -1.89161943374706    2.77903548870319    0.10201787124896
H          -1.25204314175359    2.89843484010712    0.81093179033113
O           0.16399093521415   -2.37607989728532   -0.88400987223577
H           0.19880803326923   -3.26097280741889   -1.25035196159754
O           2.68742444820997    0.28389545051205    0.97785286005523
H           3.55004944348872   -0.10552777631188    1.12396498099354
O           0.52800131507908    2.17077694603523    1.44853887719865
H           1.47421753527631    2.10874190615227    1.60610130327665
H           0.40351458818125    1.88303466400338    0.52238523433195
O          -2.26097729221919   -1.49826279038326   -1.36073213977280
H          -0.72655734933246   -2.00976364720235   -1.14266720726299
H          -2.67471260392865   -1.48908815611246   -0.49240196867707
H          -2.36305844903106   -0.57019646732923   -1.66204776216672
O           1.88211862667932   -0.21258686889525   -1.46272899222147
H           2.49679375101102    0.18228952822947    0.00339525954319
H           1.41699927648573   -1.06155179817719   -1.43210328810428
H           1.16533221863781    0.45014093930655   -1.46932601901398
N           0.28054604045069   -0.88721219600921    1.40245254821314
H           0.32940823233938   -1.61322344386331    0.66424015992937
H          -0.56345258111593   -0.25089388001515    1.12698863407728
H           0.11595897430266   -1.29078431612806    2.31806773352419
H           1.16675435149411   -0.33241550349530    1.39018992506010
