    26
        -50.46126420  Gyration_radius:  2.44980489207 Dipole_moment: 8.826
 S          -1.02447012446394    1.75254807384350   -0.71234138032652
O          -0.21480994490655    1.54074285276569    0.48579354105584
O          -0.85851406894072    0.60716716661575   -1.62395799659564
O          -2.40246019755950    2.03440764045929   -0.43009761991411
O          -0.42103421179704    2.99783857295518   -1.46523684324583
H           0.49978510835232    2.77571960666660   -1.63445679257754
O          -1.18305559426955   -2.02387339171427    0.97869316007069
H          -1.66427758826996   -2.76188806689146    1.35580096222351
O           2.67217440423038   -0.59757607396263    0.87242532584660
H           3.27167695998780   -1.19435105723424    1.32135603974409
O           1.95162284171008    1.52491214714944   -0.97744835564722
H           2.73264106454331    1.21357399652567   -0.51156215041012
H           1.24001285062346    1.53285779866402   -0.30691765460184
O           0.52608923058210   -0.22474337213908    2.32390930200806
H           1.94697401451892   -0.38726086486795    1.52518409127947
H           0.20799429091675    0.55781503376682    1.83458028682498
H          -0.09715062347950   -0.92442945731971    2.07890511935175
O          -2.97997305350582   -0.53185064280813   -0.21424275096070
H          -1.87481506113971   -1.41217953944981    0.60255171636653
H          -2.90923574478036    0.44153125555164   -0.11405850182083
H          -2.80192400295684   -0.66515199232384   -1.15007372024852
N           0.69582844049342   -1.27193058968007   -0.85499965497823
H           0.94783771495146   -1.86015899877527   -1.64162388854589
H           0.12186249108990   -0.41323736154812   -1.21042752425320
H           0.07069095782892   -1.76382150247835   -0.19039057346759
H           1.54652985624039   -0.94666121377050   -0.34136413717770
