    26
        -50.46126414  Gyration_radius:  2.44986119359 Dipole_moment: 8.827
 S          -0.94521378625475   -1.43104353233430    1.29908696287212
O          -1.51865030707379   -0.47572448046809    0.35332746138381
O           0.50989801765061   -1.51778620168387    1.08553882680156
O          -1.28411404149778   -1.15768617787089    2.66598100924166
O          -1.52329954307577   -2.84991303065876    0.93254636026005
H          -1.28128880893777   -2.99747754882894    0.01302032961852
O           1.09295795998065    2.14153380284184    0.82021490567289
H           1.48086847879922    2.94659485164930    1.16641456343665
O          -0.14356840213574    0.63256377317065   -2.79980650520151
H           0.04539458943665    1.24580315486259   -3.51067363394868
O          -0.72388624457556   -1.96815046649739   -1.64064757935400
H          -0.78015186149072   -1.53446351094304   -2.49666321925931
H          -1.09989573485828   -1.32794421951365   -1.00440751221518
O           0.67322605830389    0.59749221481884    2.89825598189122
H           0.85211204756541    1.59174624561608    1.61639562328156
H          -0.17131322538518    0.09976451728463    2.93795372434961
H           1.32914550093428   -0.09931887492925    2.80073197746645
O          -1.21942692875347    1.90502576615891   -0.78119397005296
H          -0.48682861721767    2.21259942628185   -0.22737772447784
H          -0.67118926095883    1.14308845123566   -2.12362948097853
H          -1.54552725197216    1.10797543108198   -0.32141716000842
N           1.50237656002514   -0.04958853693118   -0.75759652530235
H           1.04574592089260   -0.74471034245291   -0.04941374700847
H           0.90239475556693    0.04022985843115   -1.60919497726844
H           1.52813934308011    0.86364669822971   -0.26794343836463
H           2.43209476195213   -0.37425725855151   -0.99950223283680
