    26
        -50.45450928  Gyration_radius:  2.4515267273 Dipole_moment: 5.292
 S           0.96187260804770    0.44956694229564    1.79736849680352
O           0.92889834521522   -0.02244401688349    3.13415349746209
O           1.81135643082819   -0.52563297480289    0.96516041385173
O          -0.33056211165086    0.62416560277972    1.15982353691841
O           1.71549239531735    1.79373149694541    1.69783250753416
H           1.22062738684359    2.39213457867513    1.05898723546508
O          -0.78417436455431   -2.23067665582249   -1.11198960338839
H          -0.76706630044381   -3.12679795044274   -1.45033003670985
O          -0.12292127893180    1.68828011911775   -2.19125709516701
H          -0.38326752215570    2.03512600184031   -3.04530281908706
O           0.19895401825394    3.12373608114694    0.09615445096575
H           0.22507987054959    2.71029546636871   -0.79023896415439
H          -0.60119218040407    2.78371339457194    0.51020419675708
O          -1.94828125652948    0.28445597620922   -0.97377074522529
H          -1.78253097691276   -0.64744444277848   -1.18133954022957
H          -1.52956946253926    0.41569608658056   -0.10502446798554
H          -0.91338258900209    1.20497666144052   -1.81479018986390
O           1.30493413277140   -0.53970052877740   -1.50813204832795
H           0.92985344595400    0.30798286081481   -1.80934935983040
H           1.65309553274723   -0.47853122862261   -0.05010340776359
H           0.56379994723705   -1.18071350374157   -1.49151447515460
N          -0.47877276975709   -2.26388157355577    1.53727826812644
H          -0.69580427716611   -2.29658801066439   -0.11714578766162
H          -0.66922479045977   -1.28691215681802    1.73694480565792
H          -1.01093042075872   -2.82015795484922    2.19617075502486
H           0.50371620750528   -2.39438028103058    1.75021037597800
