    26
        -50.45450932  Gyration_radius:  2.45156672067 Dipole_moment: 5.288
 S           0.53576985291448    0.78803520071460    1.85772406480387
O           0.16060392401753    0.59193747986161    3.21108544736912
O           1.49808438491413   -0.34332381883664    1.45807319863613
O          -0.55715707361160    0.84724331093001    0.90409426987776
O           1.36993459086259    2.07660569953378    1.69019096049335
H           1.07709924223672    2.54045224748456    0.84743086511510
O          -0.63160431305675   -2.39873232356372   -0.82240259516197
H          -0.58581064940811   -3.34441797446641   -0.96852546452751
O           0.49776036608435    1.21781031727234   -2.43646914914690
H           0.46668279813156    1.39126978757974   -3.37797231940149
O           0.35805892975079    3.07692566827812   -0.45675183588153
H          -0.53650456549673    2.83737528482059   -0.19280585506215
H           0.56705726715914    2.49399761295297   -1.21430566721908
O          -1.64333114318615    0.10732273237600   -1.45321844751901
H          -1.43388593721039    0.40440794302850   -0.55034575225142
H          -0.38648242440894    0.82863114053747   -2.17787795188421
H          -1.48958575373894   -0.84917838505243   -1.43253445081429
O           1.58880879764469   -0.84529535201412   -1.01458881261705
H           1.58644304784941   -0.49799203419904    0.44506375309754
H           0.82759727139542   -1.46116240923954   -1.05636699381545
H           1.34678157458790   -0.07060527503378   -1.55429332650659
N          -0.96204851936780   -1.90527744573233    1.77759168422084
H          -0.78462045690451   -2.26561974732706    0.15778661168558
H          -1.66529766952046   -2.31408501087884    2.38181202994237
H          -0.06646757407850   -1.99995132564211    2.24302409563382
H          -1.13788595755071   -0.90637333338741    1.73458163093718
