    26
        -50.45634912  Gyration_radius:  2.66549702229 Dipole_moment: 5.741
 S          -0.56329797789985   -2.33648472222710   -1.25066451576421
O          -1.03914082735910   -2.96357725290285   -0.03619682286204
O          -1.22399983123151   -1.09627067359335   -1.58614905364092
O           0.89675633803858   -2.18204052601463   -1.25781050807738
O          -0.89412608716021   -3.36457791529840   -2.42291349773220
H          -0.79412030315563   -4.20354031771705   -1.98356339611874
O          -1.70668170566268    1.86669070079171    0.63483250335444
H          -2.56695135584345    2.07459179675640    1.00018104034525
O           1.50988279440383    0.25158093687668    1.76357868608507
H           1.98372775658649   -0.34157090861803    2.34789675487213
O          -0.49907419753581    1.42200257505736   -1.78264266552528
H          -0.88548278796679    0.53098535796457   -1.92625111186664
H          -0.98435833380070    1.75517659002832   -1.00901457648387
O          -0.82530247562432   -0.74167351229747    1.35768767673884
H           0.59911280494473   -0.16742815253769    1.64051157998022
H          -1.33107060775085   -0.07850045189943    0.86594289762691
H          -0.93953668053911   -1.59601145193182    0.88807773148147
O           0.32720450184017    2.67861086653659    2.22278801864948
H           0.90605321333070    3.34289646130856    1.84585677038474
H          -1.03974056509502    2.20455404391698    1.26967665792650
H           0.81450164974869    1.83374240255210    2.20160588168175
N           1.68067014427424    0.24445630274423   -0.95789009073304
H           0.85804071801088    0.84152193025094   -1.30626580706188
H           1.38880021352483   -0.78229689337716   -1.13369900614763
H           2.53792922119745    0.45922763798581   -1.45352800150080
H           1.79020439074986    0.34793517563063    0.06795285439301
