    26
        -50.46214877  Gyration_radius:  2.45502844981 Dipole_moment: 8.525
 S           1.76460584275248    0.93425121421621    0.76359580448883
O           1.46435058207371   -0.05508810862840   -0.27813984060508
O           0.54352701442493    1.66475227084103    1.12586491358867
O           2.41609485937421    0.34210419450115    1.89999416987627
O           2.73905160662036    1.99131667619545    0.14020348135028
H           2.25576012723386    2.34075738604392   -0.61981967096272
O          -1.23153901268979   -1.93519301952166    1.24814730437027
H          -1.63825401578532   -2.48269404754900    1.92137724398019
O          -1.78018506479440    0.63198026448912   -2.04988487815067
H          -2.38542821673079    0.50249434438611   -2.78060672779536
O           0.88448639464608    1.94502796440818   -1.90625316729238
H           1.10093962290491    1.08775576225861   -1.49930056870437
H          -0.06293276491759    1.90859700305463   -2.07576797077823
O          -0.42044049850604   -1.52614138637055   -1.44574282396696
H           0.37054459830637   -1.07069199922778   -1.09408966615538
H          -0.82860274713191   -1.93901548131752   -0.67427763196027
H          -1.24328345153580   -0.20397174332029   -1.97408307931772
O           1.32599940394785   -2.03723418105044    1.73029146904090
H           1.74260321624250   -1.16782509787506    1.93550187148454
H          -0.25042725093006   -1.94614001636196    1.45230530757209
H           1.74953070009287   -2.30883764628027    0.91156842426349
N          -1.73783733655586    0.66318521621946    0.65610869278257
H          -0.75582916049412    1.11590548100317    0.85610779489067
H          -1.91609277852993    0.74834682637195   -0.36464741950659
H          -1.65617974710497   -0.34140401168802    0.92285221775006
H          -2.45046191292526    1.13776214520895    1.19869473975035
