    26
        -50.45634921  Gyration_radius:  2.66556888864 Dipole_moment: 5.743
 S          -0.20238029345519    2.04807142825508    1.76328463238757
O          -0.00134331471797    2.25865423485521    0.34822824785658
O          -1.55641332084822    1.69645195506356    2.13392128489378
O           0.78246582030161    1.10483609668199    2.30768547448192
O           0.09200079407639    3.44059821064130    2.48099006045702
H          -0.40855080891563    3.35642917934678    3.28681599855474
O          -0.96353665209481   -0.05620381166565   -2.42386131758674
H          -1.70404927526049    0.13705876073548   -2.99920914026435
O          -0.20020194358563   -2.26411140507312    0.53794377474663
H          -0.49426246166061   -2.76424761769134    1.30027304055534
O           1.37420534885602    1.07148802956098   -1.54984810392949
H           0.62122475134423    0.70478328310310   -2.04340594096574
H           0.95450448353597    1.72242794138625   -0.94652348249059
O          -0.51698467049551   -2.70901790924421   -2.14487270312650
H          -0.45557888109379   -2.69878888258699   -1.17119026907223
H          -0.87589059816062   -1.03264727503277   -2.39218521263267
H           0.32810216595102   -3.01952629261824   -2.47331657078065
O          -1.71510087162843   -0.20022096529616    0.31684554982229
H          -1.72098487054604    0.50202845461919    1.00272136223574
H          -1.48871676601034    0.22572804348398   -0.52266907677077
H          -0.82578067127707   -1.47310613195228    0.48087788213613
N           1.82203153736757   -0.43506214134463    0.53553254762677
H           1.20189052137917   -1.26597630539011    0.52977499035529
H           1.72602892557664    0.10671772471478   -0.38741107313069
H           1.44186612278040    0.22695063200555    1.30204854516687
H           2.78545491855885   -0.68331523653277    0.72754952948563
