    26
        -50.45476199  Gyration_radius:  2.60433930335 Dipole_moment: 5.803
 S          -1.48708935286904    1.73118457747202    1.30729493558680
O          -2.53579006600730    1.35040450066883    0.38406955720379
O          -1.29134555512384    0.71872015739856    2.35694385089863
O          -0.22747610063551    2.06309877532014    0.68629238634879
O          -2.00938415004535    3.03595362544960    2.04799484863316
H          -2.93453718166592    2.84148322656751    2.16149266220411
O          -0.66175812034635   -2.20250087369336   -0.26476948296664
H          -1.42101646593443   -2.73038684785131   -0.01617577709239
O           2.68918083884714   -0.24631489687395   -0.25767556440656
H           3.62627402765861   -0.14081096110046   -0.42144152742571
O           0.76230774294529    1.32876649873830   -1.65426954150148
H           0.38026407506728    1.81738387475708   -0.89893538305723
H           1.56375619410293    0.93560021291120   -1.28311828044965
O          -1.47794257347269   -0.14970072357424   -1.51536681994168
H          -1.98695263163928    0.40116811984775   -0.88018371766080
H          -0.68924007106976    0.39440706854690   -1.73093628595944
H          -1.03856908645156   -1.40086061472229   -0.77837279765602
O           1.46509571817955   -1.82985356856718   -1.99589685586844
H           1.05605426712670   -1.18318739255308   -2.57945063036281
H           0.74034765339625   -2.20628356026331   -1.47163714211006
H           2.35597520520571   -0.92044227160083   -0.89992952024486
N           0.64497735136969   -0.72529058039568    1.54850957307049
H           0.16442085292201   -1.39547852180259    0.89416186836095
H           1.36062658912825   -0.21103071207202    1.01524494708453
H          -0.12965102636266   -0.05290457499232    1.92831136866830
H           1.08147185568203   -1.22312452761917    2.31784333863524
