    26
        -50.45634943  Gyration_radius:  2.66563962333 Dipole_moment: 5.744
 S          -0.93494300581960    2.41386741180980    0.80224862994885
O          -0.06626747476619    2.45108103502399    1.95921472852470
O          -0.25224323587988    2.22384026448995   -0.45667596388556
O          -2.03163132926614    1.45118004553477    0.96530040572336
O          -1.62658687472916    3.84841146333946    0.73731536197029
H          -1.71109714981688    4.06865049842919    1.65994218304932
O          -0.11316299236992   -1.96914660014931    1.24966787119058
H          -0.32236074148999   -2.19423316274718    2.15703181817080
O           2.22145854100961   -0.44886238939868   -1.29335318203155
H           3.15471984923115   -0.25248893573398   -1.37799536965313
O          -0.19787954882791    0.34949384029964   -2.29755406681540
H          -0.23491063314148    1.20068388518505   -1.80977049834779
H           0.70817026931347    0.03678162205484   -2.13527433367486
O           1.19035835061527    0.24521013272965    1.26749060141682
H           0.76927899093636    1.07880507657013    1.56998397918595
H           0.40612814571232   -1.10430618856699    1.30270403718478
H           1.50000395098345    0.39663488080029    0.36274057435064
O           1.75434145266765   -2.98450216855906   -0.47596477074100
H           2.15317462703544   -1.38352991508043   -1.00381322189788
H           1.12269601958258   -2.74782954121256    0.22892171953741
H           1.28073519840699   -3.53692664403421   -1.09964793624455
N          -1.77118318889838   -0.65919976043309   -0.47389229591888
H          -1.25287166036794   -1.31785426649571    0.13648001870822
H          -1.15404696223303   -0.35256605031358   -1.29837745961857
H          -2.65250962664547   -1.04819099439723   -0.78797078679044
H          -1.93937097135312    0.23499650081184    0.11124795668530
