    26
        -50.46214878  Gyration_radius:  2.45498244023 Dipole_moment: 8.522
 S           1.61591526849781    0.88535483534143    1.08343514966543
O           1.17672547686292    0.86047258246702   -0.31680135272935
O           0.51193434003558    0.47602735395615    1.96078870622128
O           2.80770810157815    0.10861151729509    1.29016267538295
O           1.93652642598845    2.37518393449653    1.44858304278179
H           1.10919800270446    2.84437433043109    1.27944854775366
O          -0.05751186699297   -2.53085408072168   -0.64035632932676
H           0.00770854309379   -3.48669944091191   -0.61943018113467
O          -2.56743792998706    0.85537677814265   -0.66886839284283
H          -3.36567616147359    0.97060615168005   -1.18515237330459
O          -0.52047550347245    2.80350645689694    0.26076482990343
H          -1.40812285426133    2.43619265460121    0.19092785639602
H           0.05813790131982    2.14757723927364   -0.16615572999634
O          -0.57430798350840   -0.12377152744805   -2.06156106173503
H          -0.50361225232855   -1.06787237346567   -1.87198544689953
H          -1.85211624758716    0.58563577805742   -1.30795780857544
H           0.14457258081722    0.28808068579694   -1.54156633030017
O           2.40037366914231   -1.67054958386279   -0.59355606539421
H           2.62488897544103   -1.10669569581202    0.18303808178403
H           0.88628238968096   -2.19769775217772   -0.58837232371555
H           2.49820921959939   -1.07899409687991   -1.34445768206608
N          -1.41459237360175   -0.89397376967370    1.04436520105286
H          -0.97359910405386   -1.60708340597342    0.42475085273209
H          -1.93298495971542   -1.32503479696792    1.80126155521900
H          -0.59157308645767   -0.29059552890201    1.45435060001735
H          -2.01617058132092   -0.25717821564187    0.48434398911094
