    26
        -50.45634895  Gyration_radius:  2.66582540499 Dipole_moment: 5.732
 S           1.17728100294908    1.49169832090137    1.93285472618766
O           2.38125293520109    0.68865183564466    1.92646106392232
O           0.81074854912238    2.03629383745995    0.64581017818289
O           0.04811143915331    0.79032336991698    2.55652844235199
O           1.49341435266220    2.73167878395217    2.88328533390619
H           2.08086611318093    2.34347988504608    3.52440402424729
O          -0.46843060997379   -2.28359679414482    0.15792938416673
H          -0.22526876720216   -2.99500779672490    0.75167473065382
O           0.44282639604674    0.16224484372596   -2.56509299975561
H           1.09312803459702    0.24379345417687   -3.26311290589295
O          -1.19562492431224    1.72222827042324   -1.02141007011769
H          -0.48360132870960    2.08212885522263   -0.44917991364695
H          -0.70733264754969    1.26024602582764   -1.72363970259876
O          -0.79352901305979   -2.24318720038144   -2.56018971931610
H           0.04631833087346   -0.73095663490799   -2.64953324699455
H          -0.67599540394467   -2.41413870299342   -1.60682293074291
H          -1.73747153463865   -2.21956169772858   -2.72404211210327
O           1.57784562834509   -0.75466284145830   -0.12211665122270
H           0.36242882191282   -1.71637938281870    0.06751637967430
H           1.35918773376706   -0.11804394155771   -0.81811619290442
H           1.93718222796088   -0.24174344720069    0.63374779332515
N          -1.73855906340246    0.01854244495597    0.88162744150161
H          -2.67949309734600    0.03017188249354    1.25739044570092
H          -1.63455453773398    0.68556677998714    0.04569906652218
H          -1.03142497638845    0.36831214394609    1.62177672678783
H          -1.43930566152301   -0.93808228379099    0.61655069815702
