    26
        -50.45476173  Gyration_radius:  2.6042866742 Dipole_moment: 5.813
 S           0.64809880958836   -0.03609645688675    2.54870567500174
O           1.74642524892129   -0.88540263248615    2.13716581873406
O           0.90804038291310    1.37871409683476    2.23887636546052
O          -0.64405284684656   -0.43335537738072    2.04386496350573
O           0.58916572023317   -0.13432560337404    4.13324147196538
H           1.51263823819799   -0.15417116026786    4.36413355428373
O          -2.34456317624906    0.51079614836980   -1.26471500676147
H          -3.24246633836110    0.53846538732849   -1.59510247063600
O           1.51649106101670    0.65415638340821   -1.62243976460709
H           2.43046848330317    0.93932384115664   -1.63957727054940
O          -1.27131105685466   -1.85982520243604   -0.09361255943850
H          -1.83052961118047   -1.17588066167335   -0.48620109627252
H          -1.11698117354668   -1.53158796499568    0.81393474252450
O          -0.59730711103011   -0.51146946322943   -2.97622834713391
H          -0.50409798580414   -1.40558676443929   -2.63301087827344
H           0.22595039755226   -0.05339930641682   -2.74336214148185
H          -1.77050086116003    0.20185952986650   -2.00836048496418
O           1.38324978962629   -1.56131121379306   -0.39033751454686
H           1.51678463301645   -0.24586741916546   -1.13411944030184
H           1.62529412287639   -1.39389303700216    0.54741295174065
H           0.43639093406967   -1.81965259375373   -0.35426513098802
N          -0.26051816287831    1.80873207552801    0.01675459808358
H          -0.43800940757929    2.79840718656336   -0.12209458120944
H           0.16811497477301    1.64025001985699    1.00881345196268
H          -1.13318358900719    1.27661487661361   -0.11125977580566
H           0.44640852441685    1.45450529175934   -0.67821714029600
