    26
        -50.45634955  Gyration_radius:  2.66545087696 Dipole_moment: 5.740
 S          -0.64917957053439    2.45405225899063    0.94688943690358
O           0.33878544198589    2.25473418357079   -0.08810848539097
O          -2.02104199094095    2.34589795661063    0.49870433166810
O          -0.38045771831991    1.60305466011767    2.11288864115774
O          -0.48065917730674    3.95371254729338    1.45939438161382
H          -1.34215167000749    4.13656568182752    1.82170084543869
O          -0.99713260829634   -2.00192901083756    0.66447947482559
H          -1.77238636484675   -2.24503636650441    1.17206366580030
O           0.56254431599105   -0.60898716227278   -2.47432407156788
H           0.33075643786621   -0.50174505489817   -3.39711199490167
O           2.21082546699271    0.47641307261132   -0.57592435330973
H           1.69422861671683    1.30229274989710   -0.45377969744590
H           1.79785113866881    0.06611159424879   -1.35444483947528
O          -1.59241944802785    0.06492180967826   -0.74057023285321
H          -0.84323972973394    0.22821268245471   -1.33173521052754
H          -1.27645711129493   -1.19774683434515    0.12029345854575
H          -1.81020061205758    0.92007228441423   -0.31036590287710
O           0.12226036423932   -3.12017608001128   -1.57030197003770
H          -0.36319259417533   -2.85394452477346   -0.76701070794280
H           0.37913319775764   -1.54422872114725   -2.24258252641806
H           0.90154198018482   -3.59593619742383   -1.27910506719923
N           1.05653221738419   -0.45545913456949    1.57281052049569
H           0.48935069993197    0.42316570727627    1.84873084296139
H           1.66026707993617   -0.74141068949445    2.33467732552923
H           0.36490011753893   -1.18915472964631    1.33070873964058
H           1.61954151036936   -0.17345268302816    0.70202341536304
