    26
        -50.45476219  Gyration_radius:  2.60428536124 Dipole_moment: 5.798
 S          -1.60694736865638    1.71834656322206   -1.17560463122940
O          -2.04442010918124    0.47289383992151   -1.82568837180718
O          -2.20459785169603    1.87847735949522    0.13367732705207
O          -0.16760320797175    1.81978505295117   -1.19866707323551
O          -2.18041845436892    2.90293142650553   -2.06538852115319
H          -3.08170483088016    2.95817487198780   -1.76325645228056
O          -0.82645856341199   -1.80136790226009    1.19634075295904
H          -1.69272001470465   -2.13797519065688    1.42712519685163
O           2.46374643035772   -0.92172478326907   -0.66292500913295
H           3.38441727666557   -1.04707515605216   -0.89275626891189
O           1.59782770747899    1.41367320670026    0.72894464257653
H           1.01253781914395    1.79652785480236    0.04623507299962
H           2.08931674612814    0.73515214959575    0.24651273362391
O           1.86558750176385   -1.64238270088119    1.81721119133513
H           1.85447572260847   -0.78818565913924    2.26016316397719
H           2.33459474342126   -1.30478245062661    0.23958297947068
H           0.93649808043768   -1.91331235651359    1.74523168313644
O          -0.68994491496960    0.63289970683840    1.90357621123974
H          -0.81360934471446   -0.82866153801631    1.51593070796189
H           0.19059471668620    0.96915119293971    1.62754458424546
H          -1.32696406830204    1.13836753751099    1.35162525284547
N          -0.20435476512985   -1.22124887026045   -1.34405031564098
H          -0.94952588251383   -0.46867626984638   -1.61747603253460
H          -0.22411801240197   -1.98823541975064   -2.00857012262928
H           0.74217741503096   -0.81676002758898   -1.30649809962349
H          -0.45838676075695   -1.55599244764182   -0.37882058206895
