    26
        -50.45476221  Gyration_radius:  2.60426702012 Dipole_moment: 5.801
 S          -0.28157798289196   -0.63543870367726    2.53652890826422
O          -1.68114386440091   -0.34245121847465    2.18935679527633
O           0.10519082091400   -1.96908262136233    2.12532244195529
O           0.58540087324976    0.41708943533997    2.06427821125979
O          -0.21271826246848   -0.63057970352922    4.12366397934691
H          -0.53878493543320   -1.49920255063443    4.33780776704708
O          -1.13137039429468   -1.14482370158577   -1.66407103672293
H          -1.73911111249152   -1.88377960038520   -1.70333156229927
O           0.44364925600704    2.37474577172998   -1.23350249870298
H           0.76592750522983    3.21930354962058   -1.54813515020570
O           2.20310053433878    0.47913272779168   -0.02765465564558
H           1.81551501157717    0.45236694897951    0.86916266750047
H           1.79030229003987    1.25741639724516   -0.42589343810876
O           0.93651406824881   -1.86510709585603   -0.37979869811652
H           0.66492871792946   -2.03446745020385    0.54944285854755
H          -0.31159700014140   -1.48785154982192   -1.15539170967451
H           1.53087525129468   -1.08547159855109   -0.32065857613898
O           0.77997071681385    0.38542405929394   -2.95311883889173
H           0.53364609273650    1.73265546785051   -1.98026353198652
H           0.03957212119002   -0.20665858758658   -2.74547671868640
H           1.56362146327053   -0.04068583443402   -2.59217051944128
N          -1.57790495115532    0.92225541602784   -0.01924629129739
H          -0.75319324654556    1.53132857180132   -0.11864508981367
H          -1.49614512296743    0.14016175083237   -0.71916586049262
H          -1.61100529811274    0.45294014121256    0.96814168652283
H          -2.42366255192154    1.46077997838779   -0.17718111950840
