    26
        -50.45476197  Gyration_radius:  2.60433240789 Dipole_moment: 5.807
 S           0.92454407665906    1.75715345172506    1.72488575234177
O           0.83382237071072    0.57130663924707    2.59135984953035
O           2.12752605549530    1.74134806041660    0.91883585812564
O          -0.29896574803787    1.93151669197008    0.97992764821795
O           1.06804016679680    3.00311245869707    2.69997530097276
H           1.99454617495675    2.97733199174851    2.91799005776622
O          -2.52714423519446   -0.72270875584172   -0.67053822607544
H          -3.44067564673729   -0.77831771559536   -0.95067369410068
O           1.14431569146364   -1.95989846600212   -0.45769693554016
H           1.96631152812120   -2.36178687762854   -0.17530876200244
O          -0.83877503728156    1.40129242281092   -1.55471586257021
H          -1.57393347567563    0.80509823547818   -1.35791059765327
H          -0.65789358619866    1.82803112780410   -0.69424400408566
O          -0.80393644792220   -1.73783545235356   -2.41066228375995
H          -1.98702087746685   -1.20735877661636   -1.34236570148403
H          -0.07919299063956   -2.04469147691753   -1.84288460681444
H          -0.47994480638488   -0.93868640453779   -2.83772353177292
O           1.63603469264769    0.38583491151489   -1.29440155781471
H           0.77838968061271    0.79277249716087   -1.54625529916134
H           1.94056765096181    0.91706140201442   -0.52562115577423
H           1.39547871841752   -1.02846277452304   -0.80084693343706
N          -0.64450223885029   -1.07528898173270    1.32987191913682
H          -1.38915911204035   -0.63260911183338    0.77261447814968
H           0.03915104843412   -1.52557336053268    0.66801385686648
H          -0.07984888789626   -0.33376057976592    1.90232701324187
H          -1.04773475492906   -1.76488116670391    1.95604741771271
