    26
        -50.45935124  Gyration_radius:  2.45171954933 Dipole_moment: 8.714
 S           0.96401487832465    1.66304811974454    0.56031010785875
O           0.77350706941770    0.69680407651025   -0.50613011857479
O          -0.18506118603291    1.55414519846599    1.49581624881139
O           2.23152012261882    1.52907775094773    1.22711029936588
O           0.90030786461831    3.09648400078153   -0.06596878156584
H           0.02183578548343    3.12194848304042   -0.48735415528930
O           0.71644340883675   -2.44908826076312    0.35745611032166
H           0.95313741405644   -3.29371750334938    0.74422491437546
O          -2.23249820943283   -0.21249892917318   -1.48979881607771
H          -2.91803052423785   -0.40355349442694   -2.13051447790237
O          -1.66120191202531    2.46192147363754   -0.56966281732606
H          -1.80782091590647    1.63544820000966   -1.05259064665712
H          -1.40566088926330    2.20193689199700    0.32938478721351
O           0.08429388603825   -1.20336606027377   -2.16543680390062
H          -1.37652289087683   -0.57273377042453   -1.86265657684609
H           0.51798957813531   -0.43002383302418   -1.75463901165979
H           0.29893590814260   -1.92339721211802   -1.55964204300603
O           2.84181155242841   -1.00482554607702    0.94212034220159
H           2.63018602858134   -0.04226197596003    0.93026664152896
H           3.42321919942285   -1.12465014167074    1.69550181242534
H           1.50912621445524   -1.86591173027356    0.47514405860569
N          -1.27432808674368   -0.70738548269650    0.99186408448932
H          -0.79521924696795    0.23726430603725    1.25624584448044
H          -0.52182639064307   -1.40287434343444    0.79277913551487
H          -1.88786180239777   -1.01996804113544    1.73682131285199
H          -1.80029684602793   -0.54182215637091    0.10934854875208
