    26
        -50.45935139  Gyration_radius:  2.45173037703 Dipole_moment: 8.715
 S          -1.19637155945009    1.60532781745440   -0.03138292715335
O          -0.64880155737327    1.50964505094503   -1.40925294746516
O          -0.85694222581771    0.38460788772959    0.67708217145465
O          -0.76457261802555    2.79564963569447    0.65105475955932
O          -2.75447900447569    1.66944425322800   -0.16954488578414
H          -2.97473365929997    0.84808305221433   -0.64580436391484
O          -0.51727935113834   -2.48400235733547   -0.89995563705806
H          -0.65226008194612   -3.42154230034790   -1.04079392608905
O           2.31888789968642   -0.23245603017295    1.09858839659089
H           3.24502547998653   -0.13532726137675    1.32651932872813
O          -2.42795057022874   -0.48894785799016   -1.73598060848547
H          -1.77056707519556    0.19492524943816   -1.93925900521156
H          -1.93271810508410   -1.22469507047679   -1.34741311859504
O           0.02060739580363   -1.90518022417127    1.58642169854423
H          -0.46355394108578   -1.06320634433116    1.47893301444307
H          -0.38324168903218   -2.35331953174154    0.08320495821493
H           0.94187891770366   -1.62346412826708    1.64403912400150
O           1.32191928395274    2.01956493852515    2.03595102763427
H           1.86001256994345    0.55457181849338    1.48901866817942
H           1.78538780862779    2.85454435701309    2.12580058259972
H           0.47186200955196    2.24319265163256    1.59016955361009
N           1.10048475418681   -0.35841382729616   -1.32975167821055
H           0.39570979228428    0.47398002672080   -1.37288143435190
H           1.73341050123456   -0.33476203187410   -2.12214522957603
H           1.61343899336471   -0.29638736765829   -0.42270656324584
H           0.53484605183021   -1.23183241604513   -1.31991099841926
