    26
        -50.45450908  Gyration_radius:  2.45152248506 Dipole_moment: 5.292
 S           0.58022471977162    1.33897398113794    1.49271682009117
O           0.48784903522840    1.41629646649630    2.90563660122810
O           1.74268076090668    0.39649711712252    1.13878321507534
O          -0.62095482887319    0.89746725458228    0.80735568321455
O           0.99064437006814    2.69753168873660    0.88403111693358
H           0.45134376906217    2.85107219137627    0.04924597257707
O          -0.06544885632259   -2.60833220156487   -0.15229990284706
H           0.21215089421833   -3.52406336031440   -0.10590945251530
O          -0.24101678480746    0.63649163584974   -2.68338806950854
H          -0.46404580106924    0.55170945465245   -3.61104631734388
O          -0.58372723448154    2.85510020736095   -1.14812282934479
H          -0.34108367198205    2.16340380969599   -1.79618626346950
H          -1.32332101144503    2.48865817564111   -0.65211539735033
O          -1.81321599692031   -0.65124339076860   -1.05400327541751
H          -1.39985066033206   -1.50812714213279   -0.86976210776020
H          -1.55688033520588   -0.09311142780938   -0.29901084614414
H          -0.93216998032469    0.13222125573466   -2.16558471893012
O           1.58347638369927   -0.68620316780770   -1.13656145088514
H           1.02488063291182   -1.45104326153299   -0.88487154912522
H           1.05652850131753   -0.15241902009923   -1.75893199725687
H           1.71222373643110    0.01229065515316    0.18521806028286
N          -0.11100624152025   -1.55654814028918    2.29813698220164
H          -0.55548481163766   -0.66854866599456    2.08709783323612
H          -0.09480563836605   -2.26801996124037    0.78855967847014
H           0.83705411770143   -1.32369361028191    2.57134775287320
H          -0.57604506802707   -1.94636053370307    3.10966444171389
