    26
        -50.46713369  Gyration_radius:  2.48621649744 Dipole_moment: 2.679
 S          -0.82575051490462    0.75553679495875    1.35232238298705
O          -1.11587184020988    0.84949277440123   -0.07069054155549
O          -1.76303055949154   -0.13763600408104    2.01647681084484
O           0.55872957322354    0.43142509798034    1.62168596680725
O          -1.05605207947198    2.19605739601104    1.96502103923429
H          -1.97164641799216    2.38014183517294    1.78058830086522
O           2.58955747480789    1.46195025941233   -1.95416318524703
H           2.37278103330342    2.12862503489905   -2.60762433361733
O          -2.07047856192406   -1.15973935389877   -1.62108197004040
H          -1.98118274867959   -0.30977756592715   -1.15011529999439
O           1.16266998926210   -1.92653100719395    0.45150861472006
H           1.15837710591687   -1.51941388033997   -0.44845728641364
H           1.18088801191731   -1.15575040441248    1.04673322698900
O           0.67207912435112   -0.42264368438510   -1.67521528581510
H           1.44993094177105    0.12866369123946   -1.89626681956198
H          -1.27503843616914   -1.20566954617294   -2.16720874670729
H           0.10808577927031    0.15578274540555   -1.12841076668227
O           1.73684365284353    2.46464159506030    0.40808467843968
H           1.27941694660713    1.72363731302679    0.85377811262947
H           2.33334440854337    2.83507792247083    1.06112708278285
H           2.35607367318757    1.85085849902207   -1.08508462173495
N          -1.39652247013884   -2.34110043229304    0.65642235420200
H          -1.64073365669953   -1.54613517596314    1.30974448185063
H          -1.77354735701651   -3.22507104121229    0.97938846852000
H          -1.76904472275393   -2.06627522541765   -0.29370012285845
H          -0.31987832953476   -2.34614762773343    0.59513743928966
