    26
        -50.45476243  Gyration_radius:  2.60387480176 Dipole_moment: 5.786
 S          -1.84058433327537    0.32058110087289    1.84974501263316
O          -2.41504610986661   -0.81839791016712    1.11628433123903
O          -0.81357366170838   -0.10246908125671    2.77877081657356
O          -1.43421722217260    1.35722414886357    0.93158432771035
O          -3.01807866104518    0.90925428626381    2.73907889691833
H          -3.01591842798690    0.31851548689737    3.48594301074408
O           1.11952775990679   -2.01064197641749   -0.25117118550994
H           1.11576032824694   -2.86143619615109    0.18828413745485
O           0.26522130921913    1.03928416365781   -2.48832259471927
H           0.35055994530907    1.58675008926579   -3.26880561293800
O           0.98094420753792    2.03135213580022    0.08854583921341
H           0.77468342945041    1.91111299684111   -0.84834332497752
H           0.10415001987099    1.99587368062984    0.51884215865855
O           2.51462728475759   -0.16697814976981   -1.77160671518170
H           1.12767796365758    0.57120410827846   -2.36607185792381
H           2.19644454278805   -0.97851088288544   -1.34500174260021
H           2.81422419704778    0.40308427374762   -1.05657899197046
O           1.49113299183203   -0.20251449528127    1.49141027968544
H           1.28932093483853   -1.31975568070157    0.48531714110689
H           1.45548685405514    0.66382569717494    1.02977073994855
H           0.70583485016675   -0.19505429291826    2.08226018135808
N          -1.15995425085998   -0.88753124812479   -1.09927598454052
H          -1.68484553092455   -1.39043846276017   -1.80768850734740
H          -0.88842439686493    0.03890579492018   -1.45836932598991
H          -1.75143345770130   -0.80257140163276   -0.18332234427098
H          -0.28352055627406   -1.41066817516067   -0.84127867527130
