    26
        -50.46713486  Gyration_radius:  2.48549854145 Dipole_moment: 2.655
 S          -0.52404482456580   -0.44829732844857   -1.61452601690084
O          -1.26543272025002   -0.48502201073015   -0.36256457713374
O          -0.92123594679235    0.69568771427530   -2.42110742824978
O           0.90731539597658   -0.53938753189324   -1.42168876781085
O          -0.93062542052653   -1.74444399641153   -2.42608523724011
H          -1.87512932074291   -1.67134312258826   -2.51961165865936
O          -2.07752567415685    1.68124792488506    1.05307534247910
H          -2.07930253984208    0.85358981565296    0.53630769600687
O           1.33300795747974   -2.20178141474181    2.45612458555729
H           0.74849499966640   -2.78938018036396    2.93733363338851
O           1.72700119920243    1.51076294745208    0.13405420444123
H           1.32692189374506    1.10276496282609    0.93973767788580
H           1.72318536855249    0.78229492603472   -0.51245841460144
O           0.19629981934132    0.17067769196745    1.83330441077869
H          -1.51453849818242    1.47860146062989    1.81141738650919
H          -0.29965944145689   -0.20426490936051    1.08148248612689
H           0.68145556686134   -0.58976852107823    2.21265239144895
O           1.02439068747982   -2.85483643702337   -0.15035572789720
H           0.95924327638046   -2.00179320903727   -0.62477041697018
H           1.66367386155273   -3.37761604036119   -0.63760173283157
H           1.28749758134900   -2.48509972123027    1.51888015610510
N          -0.42123035321629    2.66299049201031   -0.77214978624701
H          -1.13570392432967    2.48836509648903   -0.01324973891624
H          -0.42121415098026    3.62586879162659   -1.08955814322197
H           0.53908263668675    2.35023647854196   -0.39408247250407
H          -0.65192744947628    1.98994612212308   -1.55455987166577
