    26
        -50.46862057  Gyration_radius:  2.5070872752 Dipole_moment: 3.958
 S           0.89642655943888   -0.61213249016787   -0.28574786679015
O           0.51219856511255   -1.87586156739226   -0.87592625040138
O           2.35001209998541   -0.74006546530254    0.20965667547142
O           0.81853440901583    0.48628331291244   -1.24435752201811
O           0.05686348877173   -0.31183159778499    0.89367903025437
O           1.15074668011362    2.87978239127521   -0.11216014208067
H           0.38229838306141    2.87391863841047    0.48808376258814
H           1.00907091980007    2.11579410553266   -0.70503546698034
O          -1.32025677687082   -0.34234853639084   -2.49288323854009
H          -0.50326484333771    0.09198537632152   -2.15051437144340
H          -1.01875317742866   -1.19819233841291   -2.81058021086104
O          -0.65567676725793    2.09839810558446    1.78357577868225
H          -0.37805109282902    1.20279578394601    1.50092602293692
H          -0.22151700987579    2.25063539246830    2.62499618676235
O          -1.51489734262915   -3.38477023758326   -0.13814430154087
H          -1.23397236173135   -3.92817940029103    0.59952421030039
H          -0.69755624277856   -2.94533733540930   -0.47326448964975
O           2.89813018689111    1.54298530329311    1.26908710190209
H           2.26923826874413    2.15399215697324    0.78019091864437
H           2.57041068712708    0.12399338995041    0.67155048247181
H           3.78109595939860    1.79457214650341    0.99136270218157
N          -2.27489092832271   -0.84544397604162   -0.09221443427298
H          -2.29757244389862   -1.88912476565900   -0.03038195511701
H          -3.10751270124301   -0.39720687627878    0.27429352273350
H          -1.39040908493661   -0.55493026786568    0.43126555830769
H          -2.08069543432451   -0.58971123858315   -1.10698170354818
