    26
        -50.46713434  Gyration_radius:  2.48607334144 Dipole_moment: 2.664
 S           0.25923118453702   -1.05071118908989   -1.38316752279997
O          -0.72461966006583   -1.16050450295792   -0.31627574467928
O          -0.35062153960104   -0.54457280991182   -2.60342742218869
O           1.43712823825721   -0.30989882635175   -0.98531267332612
O           0.76145293443108   -2.51789305034598   -1.69755487387187
H          -0.02954799616706   -2.98248097951790   -1.95181631944350
O           1.37342417777548   -0.43979444379233    3.25252271610170
H           1.01040688623333   -1.10574780291758    3.83829585976418
O          -2.82784435936191    0.50717617441361    0.06814441184759
H          -2.29159101930618   -0.29116058480316   -0.09709936925823
O           0.70601824772610    2.17385081436063   -0.21600406754850
H           0.31337316048223    1.83417014818306    0.62432750659437
H           1.23406931692407    1.42137860001129   -0.53785016344022
O          -0.47542402582401    0.70388657807819    1.64632650216688
H          -0.48794058026581   -0.05353038541154    1.03166071698144
H           0.16292743295891    0.44673853744586    2.34204391445016
H          -2.49676028893220    0.83647891992610    0.91374070310572
O           2.21853214557951   -1.78592626230985    1.06485832820187
H           3.14296359339156   -1.97834279438742    0.89788018715996
H           1.75346693071978   -0.92820452612074    2.49219465531080
H           1.91326211147076   -1.25672136204679    0.30078805201588
N          -1.33875196310455    1.72473415134090   -1.75884625319938
H          -2.08652187729745    1.39291258703620   -1.08973399892361
H          -0.50917777629763    2.08176885610476   -1.16950651131195
H          -0.98396716969367    0.86141649521767   -2.25598193419910
H          -1.68348810456946    2.42097766782759   -2.41020671951186
