    26
        -50.46713353  Gyration_radius:  2.48636769228 Dipole_moment: 2.679
 S          -1.03113295323322    1.21359883479988    0.73963292064617
O          -1.09222905920998    0.64807713179098   -0.59996925395919
O          -2.06053215709875    0.64073620856412    1.59384274748442
O           0.29369636668798    1.14299786188306    1.31776400574663
O          -1.35802940187003    2.75570011378278    0.60331724352383
H          -2.23338569145502    2.77202181064099    0.22957009136875
O          -1.78678273393849   -1.90219775422780   -1.20562669753852
H          -1.77459647886824   -0.92764274077134   -1.15748835333957
O           2.86349016825036    0.63019825880858   -2.01532520748710
H           2.75053658308223    0.92339859726392   -2.92064490575407
O           1.07911009891746   -1.43879748394308    1.42431550733859
H           1.21657164035111   -1.47263721551834    0.44665355436647
H           1.00180143378585   -0.48533028275254    1.60771271236454
O           1.65117047544330    2.50898209293698   -0.49446536480679
H           2.13814162722859    3.16904517143052    0.00216316724873
H           2.49652999711083    1.34447261098389   -1.45311577803787
H           1.12749031562794    2.01092587215006    0.16495371951683
O           0.92852723265433   -1.06959916631593   -1.19579487458484
H          -0.91482450299897   -2.12693694495685   -1.55529172592972
H           0.28433369713875   -0.35139900813991   -1.05110847278673
H           1.73072420399333   -0.61831944282910   -1.52844485999501
N          -1.47955458090958   -1.90384488135304    1.42946320391933
H          -1.90151797194019   -2.57917124552484    2.05694445751503
H          -0.40674095064093   -1.85753644802246    1.52947497378588
H          -1.69728606102653   -2.10460466522887    0.41498576109501
H          -1.82551128711714   -0.92213728546550    1.61648143829142
