    26
        -50.46713484  Gyration_radius:  2.4853709185 Dipole_moment: 2.656
 S           1.05545826673491    0.97539626352670    1.00665503154821
O           0.55522835502749    1.14021641516791    2.36294045903300
O           1.16070857720781   -0.43384268842565    0.65840287231379
O           0.31206381046662    1.74080394736887    0.02895755073736
O           2.52416306618106    1.56379687619874    0.98536426183241
H           2.99411982247633    1.03361706865615    1.62116681470543
O          -0.51150998984173   -2.39341031789489    1.50461552802692
H           0.28756205001562   -1.85697088773894    1.34322112383657
O           0.42829007782546   -0.64451273675671   -3.47209866599587
H           1.09035693296259   -1.27281184856184   -3.76432354856104
O          -2.17515082972268    0.71326413132398   -0.20335683568785
H          -1.83835742475786   -0.07863674391066   -0.68837007279192
H          -1.42163431208485    1.32982195815779   -0.22880704744712
O          -0.71201139648266   -1.30202000912164   -1.11061147329508
H          -0.84434703024996   -2.58422148499983    0.61815126627606
H          -0.45714091505600   -1.15217038359393   -2.04344850031772
H           0.04792444202338   -0.97628210673324   -0.59286816014875
O           1.78924562311120    1.25429393567781   -2.10940878912956
H           0.92153823129462    0.08794449219382   -3.04659296633901
H           1.99482492412330    2.11651495494230   -2.47512162549238
H           1.25846865977115    1.42441969944989   -1.30550419843709
N          -1.72031571313137   -0.14002874977430    2.21076638587230
H          -2.07929755989867    0.22715583442656    1.26238599523263
H          -1.39211485084939   -1.13395536779621    2.06473866009850
H          -0.85419628621990    0.42703721849242    2.42668142338011
H          -2.41387652093195   -0.06541946027113    2.94646452074461
