    26
        -50.45935139  Gyration_radius:  2.45172267578 Dipole_moment: 8.715
 S           1.75657424178963    0.57414196957674    0.77070804488094
O           1.10565365239839   -0.26324777677940   -0.22044521600900
O           0.78984597003621    1.61524189117041    1.20551968194952
O           2.29688026143284   -0.17122774907405    1.87593277690714
O           2.94058411475154    1.32289384016109    0.07185548014774
H           2.50600192701553    1.81129452308243   -0.65103766271664
O          -1.23485902376782    0.92263640890468   -2.20721636782339
H          -1.67589220378779    1.06468715945588   -3.04528379648606
O          -1.51372248695948   -1.93888608692645    0.76632678199377
H          -2.09383434347593   -2.51171699991737    1.27077304343221
O           0.98845595052700    2.53510735236679   -1.32049979911885
H           0.76993616085876    2.48985391308831   -0.37638488042500
H           0.35851012180754    1.95017333980140   -1.76612673800077
O          -0.45114525418272   -1.54494488455721   -1.88587647316982
H          -0.99129177755383   -1.95185142696399   -1.19734070104965
H          -0.91622817667621   -0.02609677889091   -2.20271394433473
H           0.32712261967637   -1.21738060893562   -1.39406073641581
O           0.77825697188890   -2.30392516153749    2.01445600801696
H          -0.60509798787848   -2.08020618962425    1.13624675403800
H           1.39071090401593   -1.54766202531419    1.85859681986885
H           0.89404707895519   -2.53428387057330    2.93834246131001
N          -1.51383718775112    0.76570690663955    0.47936240444776
H          -1.53542041355691    0.94362438455825   -0.54570826804108
H          -0.54761506877981    1.12163932848002    0.84155935695230
H          -2.27323678514361    1.24131727132416    0.95490940676925
H          -1.55039927563959   -0.26688872951221    0.62810557287655
