    26
        -50.46513894  Gyration_radius:  2.48486618849 Dipole_moment: 1.879
 S           0.02498859960107   -1.85564304402565    0.70939386579918
O          -1.06990514597662   -1.88826659605233    1.67016902522199
O          -0.45399811986748   -1.56629212480452   -0.62773473834047
O           1.11203211992150   -0.98369214665531    1.11634395319418
O           0.64163725281339   -3.31533786758457    0.68499053447046
H          -0.12686793463716   -3.85603563204877    0.53651362578740
O          -2.65242883163729   -0.03089032618203   -1.28418360306694
H          -2.18430790948589   -0.87790010815810   -1.21232246648976
O           1.75386696297038    2.18500522010457   -0.86615035872834
H           2.28582879796231    2.79937592914827   -1.37286259573928
O           0.30606265533370    1.55785454840270    1.40782370623963
H           0.72843338396259    1.98725968266443    0.64714396584270
H           0.70313568422907    0.66493575190776    1.44600284555549
O           2.95900595345945   -0.16921782351939   -0.56631402319975
H           2.26093447692933   -0.57049094664507   -0.00075468925732
H           2.26900289683831    1.34478804739108   -0.80339059919459
H           3.77666996501649   -0.26636035627569   -0.07527874311822
O          -0.27255995350377    0.77302117626617   -2.15868869083205
H          -2.01198109344956    0.51392505051617   -1.78656490539649
H           0.37535724747056    1.37496719788867   -1.76207654772091
H          -0.08718480677670   -0.09952122349622   -1.77871659014872
N          -2.09094687802812    0.47627174191888    1.22736094807890
H          -2.82033770791632    0.82528151137458    1.83964232849556
H          -1.78065175531573   -0.49553013719641    1.51397935963966
H          -2.42498233764093    0.39376414444170    0.21481327321020
H          -1.22080353229184    1.07872834062153    1.28086110970632
