    26
        -50.45450892  Gyration_radius:  2.45165861063 Dipole_moment: 5.292
 S           1.56445846901470    1.21036719924330    0.66884144791323
O           2.44176121700142    1.24584924224538    1.78223958828097
O           2.08880534284495    0.15723143254836   -0.32168774516720
O           0.17275385681900    0.93121455608978    0.97336763612649
O           1.61106447352033    2.53581354558686   -0.12203168731401
H           0.67443522109878    2.77912398576120   -0.39556943875229
O          -0.43014443436714   -2.57791982248231    0.05015066441540
H          -0.29152193233693   -3.51972892271834   -0.05741654632049
O          -1.89006218082247    0.75850471692027   -1.87555456120576
H          -2.67997390667471    0.73417808600153   -2.41676725656445
O          -0.88590590546867    2.94262213259510   -0.60415168720442
H          -1.21091417491766    2.25279352543610   -1.21722515444103
H          -1.14332894791372    2.64220152397602    0.27377694303197
O          -2.11142220466305   -0.40600586427047    0.44389027188467
H          -2.11259071974361    0.31530971423931   -1.00710778599739
H          -1.77555976449539   -1.30985394925126    0.34746803243374
H          -1.36069538982574    0.09180131901685    0.81242579426852
O           0.34490924959534   -0.81560055987375   -1.86715497814280
H           1.39248482137655   -0.18540389861260   -0.99647782115239
H           0.01571145246199   -1.52240420699448   -1.27351370585978
H          -0.40071710442123   -0.20393235577264   -2.00787304082924
N           1.27301330020597   -1.61845534183700    1.86461694597362
H           1.41944408294224   -1.98089926443492    2.79955027511100
H           2.18384781745619   -1.50737067471248    1.43356770489248
H           0.20836808969075   -2.27155638473562    0.75745110402570
H           0.90177926162126   -0.67787972396756    1.95518501059163
