    26
        -50.45278374  Gyration_radius:  2.58888402509 Dipole_moment: 6.374
 S          -1.66612750084911    1.61036088623425   -0.32181481533885
O          -1.23834196233005    0.88620592058726   -1.49500740587443
O          -2.56034196273008    0.82771995459925    0.53024263619347
O          -0.57087243872552    2.18269487635882    0.44915947790318
O          -2.51216023975815    2.85160607455526   -0.83357707868878
H          -3.13788862835349    2.48772354718167   -1.45425037480015
O           0.51204024321130   -1.54227890313289    1.51614853401318
H           0.46268847118406   -2.43420157878137    1.86302781898335
O           1.64556745087884   -2.12034386528426   -2.12650322519692
H           2.10864048199450   -2.94871734720141   -2.25234790284870
O           1.50001093364355    1.47419145249142   -1.13437218516965
H           0.94983468745027    1.10611337052022   -1.83368033286686
H           0.86489737664424    1.87599750504422   -0.51896267163868
O          -0.62502636192810   -1.62602366417757   -0.76615914434187
H           0.05205467058252   -1.57765040257876    0.60444822763603
H          -0.93280915561126   -0.74814435200567   -1.06304962660030
H           0.09832660987252   -1.86850996627601   -1.38439831564791
O           2.72633138894435   -0.71511670954258   -0.13452717829228
H           2.43444638282950    0.15912353175663   -0.46888120619769
H           2.12120226037576   -0.93476369285998    0.58546317980599
H           2.16726661867517   -1.60604288310200   -1.46292907117935
N          -0.87264418679220    0.52018523504861    2.39718500973425
H          -0.42720440965054    1.33988430031301    1.92834247515121
H          -0.29073572137661   -0.34170164359234    2.19716207225033
H          -1.04877717683541    0.66743785190057    3.38468591962982
H          -1.76037786139945    0.47425052195927    1.79459516338253
