    26
        -50.46261901  Gyration_radius:  2.60755808376 Dipole_moment: 5.796
 S           1.37625635305913    1.51357098318097    0.61879458490161
O           1.51611436644295    0.73378310278404   -0.60263634211147
O           0.03195067154659    1.28156964723521    1.19523176637804
O           2.43127941032569    1.27396950068020    1.56255337056370
O           1.41233312831965    3.03827098426319    0.22422245870494
H           0.58712114504825    3.20771521249955   -0.25486094519007
O          -1.24757831508848    2.80702381588188   -0.45189555979137
H          -1.87292206619601    3.39908349927585   -0.03030346450156
O          -1.17802268372263   -1.70840760045358   -1.49513438529282
H          -0.78098519550315   -2.24919423867866   -2.17968575155099
O           2.72739484226831   -1.27777015194256    0.93570543692670
H           2.77529338189688   -0.38152836940627    1.33555969964692
H           2.91871724100053   -1.11889265712568    0.00607590292713
O          -2.28804482076582   -2.77378309845447    0.93129381858311
H          -3.20411092770614   -3.03126013933946    1.03857613368071
H          -2.18309629412908   -2.48274084688965    0.01481047783731
H          -0.93570654700318    2.18112175630351    0.24566690120502
O          -0.57554737255256    0.71730470057670   -2.20152491203383
H           0.28157723107265    0.73348882807875   -1.71700944488204
H          -1.06817454832306   -0.76496711302348   -1.80819366606282
H          -1.06644307462950    1.47151837184056   -1.85223293086265
N           0.06794982203528   -1.33311686748450    0.91101658364946
H          -0.27581758375175   -1.50667454807175   -0.05940406029845
H          -0.48651283685903   -1.91967573442900    1.53626852553918
H           1.10866813123615   -1.50083272070646    0.97667365648969
H          -0.07169344802271   -0.30957629658129    1.12043216554857
