    26
        -50.45601912  Gyration_radius:  2.4495795843 Dipole_moment: 7.016
 S          -0.88403752287814    1.63124785526520   -0.79672529211547
O          -1.44707363571874    0.40708704509841   -1.33602880845061
O          -1.79831673420737    2.33937239430553    0.07343754101584
O           0.38351647126219    1.36318022604065   -0.07173059392819
O          -0.49254583177115    2.56071908234317   -1.98784807352257
H           0.10122891477154    1.99711232697468   -2.51879807756562
O          -0.30700657735753   -1.18888817732897    2.33404658883843
H          -0.11542565223560   -1.83357199380578    3.01645964200907
O           1.44336535954772   -1.99124523615061   -1.41472015791058
H           1.60232149496888   -2.77408931279144   -1.94311243678771
O           0.66869198982295    0.32171747954717   -2.94173936118274
H           1.25463661253015   -0.30009857147614   -2.48553349543926
H          -0.21425366074162    0.10887805016289   -2.59878309519717
O          -0.98878892067070   -2.01645670867917   -0.34799322870201
H          -0.94706963325341   -1.85087567811788    0.60277031837205
H          -1.28890009537996   -1.17356401851220   -0.74389856151374
H           0.51420442758685   -2.06738728727382   -1.07805240967809
O           1.82287779347659   -0.66440301364467    0.93687877961012
H           1.47267428878824    0.13704453282042    0.50526710118323
H           0.55193834100080   -1.04736577913857    1.82928427869990
H           1.93562201054845   -1.28340620257127    0.19643331102532
N          -0.66359594298057    1.47071997416733    2.21852681123849
H           0.03253554332648    1.49493949594546    1.38753545644548
H          -0.75007540806453    0.46381801481005    2.47495055543993
H          -0.39887216733729    2.05759392008904    3.00191691585311
H          -1.48765144503615    1.83792156192194    1.68745627226052
