    26
        -50.46282831  Gyration_radius:  2.50937855149 Dipole_moment: 5.065
 S          -1.77675582352659   -0.04827440557372   -1.15697328414315
O          -1.79075066216639   -1.48853288390436   -1.26335581743515
O          -1.40178815590616    0.44319992747516    0.15806345735381
O          -0.96198499783993    0.57780558521697   -2.19791466580557
O          -3.26747185302643    0.42741808653853   -1.40188235903237
H          -3.55138363791487   -0.22163645678915   -2.03633365616649
O           1.62325993495153    2.83832441561348    0.06880075358770
H           0.90208824379949    3.45807839196619   -0.05448674786439
O           1.89279482901415   -1.17147508503478    0.39655824064586
H           2.62779088216578   -1.77827485589229    0.49039306657624
O          -1.57474141849528   -1.04959389517318    2.39106231907453
H          -1.72508876117060   -0.50099735921452    1.59794377340199
H          -1.02533655552315   -0.51646229881769    2.97145575876529
O           0.72380968625263    0.99998881587396    1.71552781062869
H           1.36284221280749    2.26873071719773    0.84044458104416
H          -0.10316616514396    0.87624798292859    1.21183707279570
H           1.26230010889999    0.22468707903352    1.49680954788221
O          -0.23422571636572   -2.57092345543314    0.58600509493423
H           1.05390210910323   -1.74404809637697    0.46386621992404
H          -0.70953584767847   -2.24728712138727    1.37719482654482
H          -0.81246467172160   -2.30681740097323   -0.16033544855071
N           1.51643015717556    0.70131886856118   -1.51273390175504
H           2.13265452676330    0.65738591081636   -2.31706288391554
H           1.71255862841040   -0.08139580127129   -0.84658236114719
H           1.63573571623354    1.61327842070308   -0.99001072079137
H           0.48852726089889    0.63925493390365   -1.82829067654906
