    26
        -50.46261902  Gyration_radius:  2.6078380138 Dipole_moment: 5.794
 S           1.98771317448223   -0.68946801468465    0.38041843713237
O           1.13476592458186   -1.20413915695036   -0.68116635961607
O           1.37398421122537    0.53123985759500    0.95161388031600
O           2.29639329466814   -1.67264147932937    1.38003701567870
O           3.34106589567918   -0.21856833430011   -0.27416967064215
H           3.12191428228828    0.56476246701025   -0.80094028069801
O          -2.22950930823756    0.35782096275095   -1.20172391308336
H          -2.68685176443433   -0.26544210844314   -1.76838187371021
O           2.05369554376168    2.11373442670369   -0.97525054483770
H           2.43464073282119    2.94350537845276   -0.68250973317164
O          -0.03618364498404   -2.90724431489291    1.21907610776233
H           0.86621272186231   -2.59902960977316    1.45611379443574
H           0.03600856981915   -3.11250393267082    0.28171956719279
O          -3.23805435733759    1.23031120877921    1.34401791726299
H          -3.78961769593115    2.00263529457476    1.47128963396861
H          -3.07521425886397    1.15393044678371    0.39362638968905
H           1.70073188373462    1.66448933401416   -0.16957540348121
O           0.10815225071548    0.59267253376270   -2.30896214212184
H           0.67595087074041    1.34817323597092   -2.11228359519177
H           0.51068854165782   -0.15577059479505   -1.81151267506904
H          -1.37151520812942    0.56159510139012   -1.67346313029741
N          -1.05854175752001   -0.45294777394185    1.13354354941803
H          -1.49342862209565   -0.28049825105923    0.20015351393052
H          -0.13692301077444    0.05800558409886    1.15556841117843
H          -1.70244531302326   -0.08913620932843    1.83743973176415
H          -0.82363295669644   -1.47548605169185    1.25532137219678
