    26
        -50.46261892  Gyration_radius:  2.60736498918 Dipole_moment: 5.785
 S          -0.50228017504139    2.05609733160479    0.29359419521341
O           0.75217749909545    1.40363567540930    0.73388064352477
O          -1.22389760701429    1.15817958847996   -0.59655845570831
O          -1.30070389758094    2.51819763487598    1.39368154130885
O          -0.05599366973582    3.31175074517766   -0.54659322530716
H           0.62625014939611    2.99364898743030   -1.15703566195793
O           0.03197382292376   -2.33954608097095   -1.03297702879025
H          -0.69744346377390   -2.79316636227117   -1.45827173156222
O           2.06322499465599    1.80637440250833   -1.45626317727281
H           2.94917767348645    2.14828551493516   -1.32385935778854
O          -2.68394115418081    0.27763213134544    1.63416884210855
H          -3.02707109575649    0.28693531493583    0.73517572488226
H          -2.28878021459418    1.17126939778817    1.73762578385091
O           0.23994912606315   -0.12283507751901   -2.37046249909185
H           0.21436720994998   -1.54008592713263   -1.60547231267682
H          -0.39850116232388    0.37200975929888   -1.80720118457584
H           1.04967108533778    0.40165469510183   -2.33852285744376
O           1.22427843816942   -3.19885625515856    1.43463403580595
H           1.01103278370834   -3.10744691066551    0.49556863007199
H           1.97293719843832   -3.79291832361294    1.49373002848960
H           1.72114791752507    1.55377754815925   -0.56477603536208
N          -0.33871578844978   -0.92666698744677    1.28025241197672
H           0.22474958965625   -0.04661936506928    1.14241492010836
H           0.08915952649126   -1.53675211556551    1.97818656498929
H          -1.31421999184074   -0.60762776857396    1.52997301934674
H          -0.33854877460163   -1.44692755307077    0.37510718587113
