    26
        -50.45450899  Gyration_radius:  2.451537639 Dipole_moment: 5.296
 S          -0.93190135627196    0.90984231258235    1.63204626229391
O          -1.76790652651094   -0.28082799513111    1.13393158938941
O          -0.84996519960827    0.83217614522544    3.04555370780390
O           0.33793461563206    0.93180689336001    0.92882395223787
O          -1.73268422414947    2.15239749482127    1.18567948425843
H          -1.27270258553502    2.56203820046464    0.39073349163442
O           0.83108923475700   -2.43236215391314   -0.47301862041402
H           0.83759172065470   -3.38742620569424   -0.54774645643063
O           0.00927084009597    1.01231755845215   -2.57717341945189
H           0.23606966675241    1.11357388910572   -3.50226908817295
O          -0.29840605561484    3.02084130019838   -0.76911946498795
H          -0.33478175379674    2.37704112084601   -1.50493336202736
H           0.52120157190296    2.82573687785566   -0.30269626995778
O          -1.32378260907813   -0.97290748514666   -1.25315441292690
H          -0.56122014812489   -1.56477611655836   -1.08413748998383
H          -1.63682436575174   -0.51579885719990    0.14115273252038
H          -0.98556958164947   -0.23365893153000   -1.79083782827467
O           1.91110700146972    0.05005300689539   -1.07966306277934
H           1.77160650582871   -0.90665684722648   -1.01377734880215
H           0.82481340911971    0.67313321302356   -2.10820999590579
H           1.51081694563253    0.40801695479936   -0.26798478523007
N           0.59397751135333   -1.73134595487903    2.08926908055304
H          -0.37654317734627   -1.82630100903272    2.36631533504764
H           0.77006680388039   -2.21998067772523    0.50321799861450
H           0.75166907308128   -0.73236600835023    2.00086783737379
H           1.16507269328302   -2.06456671524712    2.85713014362194
