    26
        -50.46261897  Gyration_radius:  2.60746412787 Dipole_moment: 5.788
 S          -1.62732929798336    1.33087215910962    0.38246927835937
O          -1.60044124680791    0.36667692977431   -0.70794148766416
O          -0.50301643177475    1.05528072237859    1.30618078892708
O          -1.64839517209785    2.69261693674568   -0.07191298583351
O          -2.93733378916159    1.07585203599228    1.21926509657122
H          -2.80579251504350    0.22555337386561    1.66521846906210
O          -1.59476964209324   -0.97037031734134    2.48192330898694
H          -1.53297799446744   -0.94704489216648    3.43848344664152
O           1.32126359061257   -1.95486981913343   -0.98571962388177
H           1.23951112448066   -2.31983624566202   -1.86822085364810
O          -0.15324319067942    2.24788404118642   -2.20706100108779
H          -0.73927465072614    1.58725008585738   -2.58936967076596
H          -0.69008494406634    2.63772148462964   -1.48236692120393
O           3.66631706412689   -0.59578329196350   -0.03396423258224
H          -1.02312356834118   -0.23957284141010    2.14327253147963
H           4.39283804514286   -1.02525565050970    0.41853952565869
H           3.03322374055698   -1.28797300382434   -0.26991084661263
O          -1.08642764882639   -2.12377608338027   -0.02656724493315
H          -1.24617348697270   -2.08013805774153    0.92442804442857
H          -1.37113849721486   -1.24444060201271   -0.36643230113166
H           0.43706604977088   -2.12150748010113   -0.54909427454332
N           1.31389041285304    0.74884415999958   -0.57099970193356
H           0.90269799627549    1.37549664146240   -1.31526364420761
H           1.24840982679839   -0.25441086582639   -0.85265797402565
H           2.29525264726695    0.94012473483823   -0.36433452050424
H           0.70905156837332    0.88080582519156    0.28203681442175
