    26
        -50.46282832  Gyration_radius:  2.50924963229 Dipole_moment: 5.063
 S           1.69203043786245   -0.04615942098150   -1.27782172862183
O           0.24980680513020   -0.07094988499483   -1.45388052365233
O           2.20498459833139    1.22234682233867   -0.81580349663117
O           2.13310700859905   -1.16187485542543   -0.44104434237727
O           2.31979352812542   -0.28080203088937   -2.71298562925359
H           3.17169578307981    0.12488004959501   -2.59462622156137
O          -1.47639385250851   -2.86080622760933    0.57473436485058
H          -1.28053105169449   -3.32828136339727   -0.23914727658587
O          -0.71121374819358    0.84292604598889    1.97382636461226
H          -0.89068241447387    1.28529853212659    2.80409392880305
O          -1.23000044676759    2.15501448290239   -1.77087994252506
H          -2.09867319562706    1.78332462108300   -1.59699736023922
H          -0.63131966885145    1.38901741490593   -1.85685059133638
O           0.30825961774107    2.59535317357670    0.42193626300627
H          -0.30902631687837    2.69179909460082   -0.33061799440534
H          -0.29642409453379    1.54981649251341    1.37021384479216
H           1.10523017671916    2.18810156972397    0.02175568940631
O          -2.07141324458984   -0.40091125423758   -0.12895440791952
H          -1.89874717773771   -2.00395476188203    0.30062913168858
H          -1.85317274566066    0.11422955474758    0.66219947546276
H          -1.28550646298553   -0.31800960147737   -0.70202284200713
N           0.57608912304701   -1.49877195379355    1.58115200380712
H           0.14020716258765   -0.57729140312956    1.81724319785221
H           1.25261077206980   -1.36113576608186    0.75444305673036
H           1.07151808854014   -1.88179891394323    2.37896544679442
H          -0.19222867131690   -2.15136040627359    1.26043958930766
