    26
        -50.45634950  Gyration_radius:  2.66575228932 Dipole_moment: 5.739
 S          -2.34007393111833    1.22939306704447    0.59479173052148
O          -3.01316576407220    0.66900281625215   -0.55738531559266
O          -2.10804607032784    0.22592948187906    1.64127521751244
O          -1.13113139302338    1.95864027884348    0.28865078275343
O          -3.36261747926375    2.27840757211696    1.22254159579451
H          -4.20226245026768    1.86564418824987    1.04528528366761
O           0.29768713732273   -2.30673398150568   -0.17174461074649
H          -0.27902404716126   -3.07052597625889   -0.21399119803998
O           1.76401327457927    0.78457027444162   -1.75554689755008
H           1.92014352526138    1.13048173820839   -2.63459245057399
O           1.42527841166560    1.65811901385665    0.81768302974812
H           1.71930815251216    1.45225721397132   -0.08573096909267
H           0.51749752191013    2.00827597426067    0.68662565557305
O          -0.80901775982786   -0.41056723418852   -1.50608666634167
H          -0.16575372499774   -1.59255815370853   -0.71582975855696
H          -1.65972219434937   -0.01919796781809   -1.21134564481415
H          -0.16639395378473    0.31203335760237   -1.55322589211523
O           2.65118469273983   -1.75355666836247   -1.45739217638800
H           3.35127566756011   -1.87245769670897   -0.81382885032116
H           1.83321684901896   -2.09808464758513   -1.05233940298686
H           2.12371304570396   -0.12776755348875   -1.74147178459514
N           0.35049725818303   -0.48358311398010    1.85528936300850
H           0.62272102196010   -0.72589675995496    2.80074938086252
H          -0.68649787243109   -0.17718077258026    1.82701969516389
H           0.90912539651371    0.35488904992440    1.48185816818311
H           0.43804468568840   -1.28953349051617    1.20874171493088
