    26
        -50.45872229  Gyration_radius:  2.5323321 Dipole_moment: 5.648
 S           0.45159244944658    1.93554002245631    0.15814308459547
O          -0.60046489009838    1.14662375319658   -0.43939849979687
O           1.31317041615679    1.10919020339044    1.00945062108911
O           1.17002256326348    2.76185137512986   -0.77962751650971
O          -0.25486570174295    2.92317532905059    1.19555019682297
H          -0.73448430647017    3.52728029386167    0.63745986300519
O          -2.62517996830446   -0.80968705506823    1.90632786224251
H          -3.22707096781398   -1.50861934154242    2.16535339659219
O           0.26114329515384   -2.37563489149912   -0.43630444046346
H           0.67036041795157   -3.21114181760046   -0.66470085803504
O           1.48513926696486    1.31473889008026   -2.97042323263404
H           2.27079637050116    1.67880678881874   -3.38362692223500
H           1.26564823599593    1.92311139356902   -2.23247612356072
O           1.94816722779649   -0.52534244935249   -1.07581135770395
H           1.75400036759699    0.00331470173076   -1.87994419085610
H           1.87615907144245    0.10111691834154   -0.33733851996441
H           0.87575324676290   -1.66404205533758   -0.79223608789777
O          -2.20209356656757   -0.96069935022475   -0.67028835594210
H          -1.73725299948236   -0.10621828741509   -0.74315510403092
H          -1.50005090541405   -1.61617716634627   -0.78190179498277
H          -2.61528847089419   -0.80497754876430    0.90832433612672
N           0.03168451169339   -0.97797981295001    1.86377869986343
H           0.48015699218162   -1.33535009146972    2.70072678046600
H           0.50503229175850   -0.06312469934738    1.56526446129336
H           0.13715705513601   -1.64100479769462    1.06023506951275
H          -0.99923201342629   -0.82475029479773    2.01661865214253
