    26
        -50.45872219  Gyration_radius:  2.53198816584 Dipole_moment: 5.652
 S          -0.96899539595600    1.46463161805006    0.94245628947145
O          -0.88665088286391    0.25547926919561    1.76759398333816
O          -0.18526057768824    1.32676589959065   -0.26287468557910
O          -2.31382461027752    1.93260903535332    0.71746610966532
O          -0.23942200222276    2.57062412112313    1.83414581774553
H          -0.38099079684163    3.37772435771794    1.34939464949457
O           0.43508883565493   -2.16473347442900   -1.01467393736254
H           0.30416634840228   -3.06986987949467   -1.29977637689227
O           3.31352364605529    0.36836384169780    0.23913060154968
H           4.16779187015337    0.02029940870122   -0.01958977781020
O          -3.17879866782568    0.71399706980455   -1.46409256469390
H          -2.84414897192068    1.28415790075714   -0.73896241664594
H          -4.13272064127961    0.69624076275955   -1.36279878039273
O          -1.87270357495396   -1.28817761126667   -0.24945525833960
H          -1.65844318664588   -0.77260807627871    0.54504565991387
H          -2.33680054446467   -0.66032288098705   -0.84462561825205
H          -0.48354095761504   -1.80144716253650   -0.82829286902765
O           1.69398954103256    0.26486566899574   -1.81207829512755
H           0.98662730378008    0.79831339431288   -1.40394672610874
H           2.78168623625680    0.45675833561966   -0.60078266342264
H           1.33398901113680   -0.63255307775914   -1.81592157164317
N           1.30778253556329   -1.03898293393097    1.28080295020441
H           2.12542851696014   -0.42821112535305    1.01986420420411
H           1.04706906749240   -1.59714983533722    0.43419774283147
H           1.53161681608628   -1.64011008824650    2.06684616727178
H           0.45354108208421   -0.43666452812148    1.52092737566316
