    26
        -50.45450919  Gyration_radius:  2.4516064465 Dipole_moment: 5.292
 S          -1.19483836323122    1.01008359473298    1.38262098779628
O          -1.76584747613814   -0.39071842388121    1.10479751590540
O          -1.20122782595072    1.22042456210199    2.78494638771654
O           0.09704753901148    1.13875118084016    0.73305459528863
O          -2.17208917222608    1.96974581936447    0.66920057622933
H          -1.73852110494551    2.29856022696270   -0.17644145986492
O           1.28692909968735   -2.27460995356870    0.05522454603894
H           1.46917360234189   -3.20752849871472    0.17455402515897
O           0.01425182789072    0.48414802849629   -2.72594831685208
H           0.28537656326752    0.44804668355242   -3.64392462742567
O          -0.78351508444630    2.70401491609790   -1.37201948715306
H           0.02268892089619    2.76479072597921   -0.84885974023598
H          -0.64873783099188    1.93611861005162   -1.96313369987036
O           1.94486979739823    0.20605050287891   -0.99948923478898
H           0.84142990000000    0.40264276948901   -2.16984513909929
H           1.42885009695208    0.62956149115356   -0.29128651068121
H           1.97515785185821   -0.72920341053429   -0.74765693444543
O          -1.03306721753118   -1.42762450893774   -1.07748810515322
H          -0.79496574972698   -0.75415253132834   -1.74063857378340
H          -0.19089846375643   -1.82037321520359   -0.76629429628072
H          -1.52308248656402   -0.78094789062101    0.18467891437183
N           0.74293090586324   -1.15491052362786    2.41390180839960
H           1.30358065329180   -1.22476324135186    3.25509359341345
H           1.11838456888791   -1.89518872992546    0.96601966076599
H          -0.21450218869324   -1.37372942541814    2.66511376800207
H           0.73062162685389   -0.17918873858945    2.13381975655090
