    26
        -50.46185759  Gyration_radius:  2.64675311438 Dipole_moment: 4.950
 S           0.80122632825447   -0.33718722421518    0.70278323173263
O          -0.46089185208689    0.45489543938506    1.25698247751823
O           0.21417646953132   -1.52983710118591    0.09063434395266
O           1.39907467384083    0.53625439552026   -0.30078955878129
O           1.66564623543955   -0.62971999021114    1.81326131138856
O           2.65905666572511    1.39901033451862    3.17091658245771
H           2.48701175166506    1.20735683578050    4.09414943536640
H           2.42265261240481    0.58149714641253    2.67756143072537
O           0.35762726960499    1.01858664614040   -2.64784400575121
H           1.04274088697656    0.83882178099066   -3.29339467339543
H           0.79047966730358    0.92024071758442   -1.76313897423403
O          -2.97326990287742    0.49814879159678    0.15196260001852
H          -3.59649342262465    0.12141676321047    0.77503249808451
H          -2.12779378341605    0.58983685081965    0.62930053702770
O          -0.75921294433712   -3.38444094680672   -1.77325292592037
H          -0.49723899877665   -4.30551245028914   -1.75301161968490
H          -0.29168175829392   -2.95320071478527   -1.04216790767641
O           0.97383693204617    2.54419419412838    1.44541372728076
H          -0.03496594174852    1.34896137011314    1.43782781244608
H           1.61425631092409    2.34995090063935    2.16460168037493
H           1.39351642489760    2.20400640890354    0.64028301770950
N          -1.44565976450967   -0.69108769942870   -1.72362652258554
H          -0.77663535628671   -1.02140888731194   -0.95651639216713
H          -0.90063738446056   -0.00108466126665   -2.29337020104217
H          -1.70860388689596   -1.51931444453935   -2.25647171402616
H          -2.24821722229604   -0.24038444566840   -1.24712620082206
