    26
        -50.45450928  Gyration_radius:  2.4520499766 Dipole_moment: 5.292
 S           0.39844163000726    1.30491280249785    1.58214851433901
O           1.46353777623419    0.19716704830090    1.51877736465851
O          -0.65708666953510    1.01033057238577    0.63011307497414
O          -0.01278244880228    1.44639503302883    2.93186351026867
O           1.13228398214744    2.57021354199145    1.08695067071851
H           0.84240893036426    2.75933385155037    0.14307405674187
O          -0.41487433386468   -2.57682771420380   -0.14842511411959
H          -0.29330776638881   -3.51989381460070   -0.03169716282402
O           0.49794138645310    0.54958565871475   -2.66866357285625
H           0.49046700679959    0.45736745365455   -3.62202969406591
O           0.13980531412220    2.85633299683789   -1.27306856123118
H          -0.74411423829912    2.62314460584424   -0.97053146510559
H           0.42287286871143    2.11012617810085   -1.83898631808487
O          -1.58890763944455   -0.42804996009813   -1.45465708908300
H          -1.36400216214001   -1.32699150274253   -1.17135049356563
H          -1.43828990502091    0.11867266727321   -0.66362554351250
H          -0.36355153640132    0.17270499033867   -2.32818081492009
O           1.68584054276887   -0.95138293443778   -0.71851559606575
H           1.60060764468026   -0.22046729251191    0.58878707301490
H           0.97622491267734   -1.61744849273630   -0.60323966608826
H           1.40698342771444   -0.37570593420090   -1.45392123277667
N          -0.87681901839789   -1.42907039800008    2.21388151701188
H          -0.61379335916501   -2.19760784085380    0.75632022492687
H           0.00582980376615   -1.31813802597082    2.70009793980272
H          -1.12796133845795   -0.49753104400994    1.89803284894501
H          -1.56775479055727   -1.71717244616874    2.89684551891647
