    26
        -50.45634955  Gyration_radius:  2.66535978621 Dipole_moment: 5.741
 S          -1.75011580882178   -1.71526470633567   -1.15465565634803
O          -1.38083656143373   -2.80181198237156   -0.27289160918226
O          -2.54730811867004   -0.69210243240441   -0.46648254153537
O          -0.64643582461530   -1.12452099528485   -1.87575906402867
O          -2.72002335502919   -2.35634990825158   -2.24483692792237
H          -3.17782012966720   -3.01864428862212   -1.73627340473325
O           2.56609813039649    0.13849011202714   -0.45242037825067
H           3.38499253884644   -0.34203065176908   -0.57604387927413
O          -0.02194249546693    0.62632175456695    2.24597374250151
H          -0.46961769220558    0.32197046464268    3.03636774058574
O           0.52396370490283    1.22800416881618   -1.91545799487415
H           1.36671078840280    0.95836589357995   -1.51286975118413
H           0.10120573773370    0.37378159008405   -2.15073987128810
O           0.57564759553212   -1.43684512456381    0.83687869560132
H           0.20556704867482   -0.21177663202126    1.72925328714928
H          -0.12884059179748   -2.00096795291668    0.45049886994678
H           1.12415708035403   -1.12588254638541    0.10214621765166
O           2.52357829836426    1.55509897751882    1.85170073037916
H           1.64863379063063    1.24014555018065    2.14674222906617
H           2.64730285500232    0.62395315949787    0.39593250308242
H           2.45749375154041    2.50591231668577    1.75163809449454
N          -1.25999557777748    1.48562430526625   -0.02611138115281
H          -0.49925335919373    1.51052495742251   -0.78462744147692
H          -0.83153511892965    1.34067096017926    0.90704582090551
H          -1.84238558395250    2.31444524675670   -0.05028831199851
H          -1.84924111281978    0.60288775370775   -0.23471969812736
