    26
        -50.45872211  Gyration_radius:  2.53173863794 Dipole_moment: 5.649
 S           1.49330995648522    1.01805392611319    0.84130521886437
O           0.58264127590156   -0.03237891354234    1.23316558759151
O           1.40585547388602    1.28329814702879   -0.59805563502837
O           1.41446088212306    2.19984067813638    1.66304113074096
O           2.96761920879351    0.43019783269690    1.01914674457028
H           3.06498402490824    0.35121126975936    1.96293839037306
O           0.87940482516261   -3.15826546132476   -0.64855674842358
H           0.58484611450357   -4.00714553948418   -0.98097587580424
O          -2.05283418154750   -0.44795561788931   -1.22109916785949
H          -2.84633083115819   -0.29888938912294   -1.73670882498496
O          -1.15178543953693    2.59206004205984    2.16741900829815
H          -0.19111518143332    2.39867494900403    2.11760103312252
H          -1.21999678628085    3.53537247422848    2.32880220965738
O          -1.24809504674370    1.87155874702504   -0.41373981124371
H          -1.81570338444779    0.44325439666922   -0.82088815838490
H          -1.39219784586431    2.09430105574153    0.53143680079083
H          -0.28406659865957    1.81698751257869   -0.51694324510544
O          -1.00869637505186   -2.12244325809428    0.83567503871108
H          -0.46431749217716   -1.39488351368497    1.19038772982797
H          -1.61191800785312   -1.68188892912363    0.22167126429759
H           0.20473520168409   -2.87441630262397    0.02998177392877
N           0.54604960127717   -0.81203176197973   -1.86232015750201
H           0.82154017634490   -0.75971559825498   -2.83736366194519
H           0.98048509157025    0.00611066072812   -1.32191665080304
H          -0.49124928126679   -0.72116006375500   -1.75241994162680
H           0.83237461914876   -1.72974734260494   -1.43158404227619
