    26
        -50.45634938  Gyration_radius:  2.66558300379 Dipole_moment: 5.740
 S           1.41725705517768    1.62297383701929    1.64187764268478
O           0.02705874153470    2.09423656921076    1.67291641229104
O           1.65612999531299    0.56728529343217    2.60266926333660
O           1.83779979590093    1.31560353713564    0.29435355586196
O           2.30185139205013    2.85614702133753    2.12862853733372
H           2.26865741850747    2.76148503720666    3.07558699523982
O           0.97327472011398   -1.71021127388656   -1.71291044155986
H           1.62353806061702   -2.39262374761551   -1.88089438419371
O          -1.95409434371059   -1.12665442560853    0.58986448066890
H          -2.42005621151917   -1.30656522135953    1.40736058069631
O           0.63393216369843    0.98955085959260   -2.01872834248578
H           0.78981233063689    0.03436399205232   -2.11009263373791
H           1.24155579483366    1.25009559596894   -1.29299174636950
O          -1.55369005750240   -2.67287758333665   -1.63426948264879
H           0.09585760044413   -2.14848561373436   -1.71167188781639
H          -1.80238118315030   -2.23142874553187   -0.80051640172836
H          -2.14530944789683   -2.34138988467190   -2.31138429027280
O           0.56510411173351   -1.27398291742235    1.07210071605833
H          -0.97334549921681   -1.20647145103493    0.81938235689559
H           1.01893195280888   -1.20367830846049    0.21978840837698
H           0.99740325885374   -0.63632437692844    1.68058052798680
N          -1.35212106721624    1.35618656450475   -0.36357793527520
H          -0.79267249205999    1.72540779969210    0.48527143255268
H          -2.06423257089611    2.02343534133341   -0.63630912732145
H          -0.62778021463184    1.20504983787892   -1.14272225274431
H          -1.76248130442217    0.44887226322474   -0.07431200382683
