    26
        -50.45872230  Gyration_radius:  2.53195822679 Dipole_moment: 5.645
 S          -0.92605837955142    0.13968577579250    1.75982202316869
O           0.34642760013708   -0.34204933271624    1.27513068725039
O          -1.65017781157504    0.86518886585279    0.71142043628775
O          -1.71434417735157   -0.86130214766959    2.43427792724443
O          -0.60195517604835    1.27361230369915    2.83681628140725
H          -0.22677481960778    0.78913497104238    3.56548497955556
O           0.37750946940203   -0.50843985346166   -2.34568397779770
H           0.21308477844813   -0.79953087254724   -3.24340828690532
O           2.51432111919831    2.18948959350162   -0.24269532030440
H           3.23544645051923    2.50558748848018   -0.78853909446020
O          -1.41954633939241   -3.10035525234609    1.05845580323118
H          -2.21868124295542   -3.59839095115780    1.24256016687955
H          -1.43929186258161   -2.33018992390287    1.66615088240452
O           2.43058861165251   -0.42152555391184   -0.37082551473251
H           2.61475221096748    1.19767848166213   -0.19389268183802
H           1.78199068458512   -0.53318409609976    0.34913570114805
H           1.92681580845665   -0.62768197263633   -1.17001790023252
O          -1.62836054401010   -1.31090989978452   -0.92762864057323
H          -1.79490407668450   -0.55733413924837   -0.33820383845276
H          -0.34879214895499   -0.92213583849028   -1.78692719087047
H          -1.48020869097835   -2.07551770678386   -0.32998012489527
N           0.00075024143970    1.82764870336335   -1.04271859933750
H          -0.64614264712064    1.49182574733311   -0.25611997431679
H          -0.43641017695247    2.59866680890208   -1.53643533004600
H           0.93932639024406    2.10473925112225   -0.65287281040980
H           0.15063470874907    1.00528954993269   -1.67330559334441
