    26
        -50.45717732  Gyration_radius:  2.52450257347 Dipole_moment: 4.854
 S          -0.37219564960363   -1.87747328129936   -0.82493762763253
O          -1.28660974950839   -0.77418572501184   -1.12559608103713
O           0.89611194920205   -1.66326385306128   -1.50183521307426
O          -0.24546478295394   -2.12506986628421    0.59080592368746
O          -1.01542354761534   -3.17945411154597   -1.45728452547557
H          -0.96199432297609   -3.02051541435529   -2.39491105840282
O          -1.48994073493662    2.22910247528503    1.13722002308901
H          -1.46308553260090    2.90829162434049    1.81197654790848
O           2.22321622079923    0.66683115849860    0.90890912758640
H           3.09660077880931    1.05606506403817    0.96937803239221
O          -2.51257875859030    1.73440028815163   -1.57032224078413
H          -2.64475993149172    1.97933853390795   -0.64914221542649
H          -2.37728470870790    0.77930269618645   -1.56284370859784
O          -0.32020962709648    0.08239210135429    2.11234891993884
H          -0.44216700657785   -0.76127875704815    1.63383906209919
H           0.61259399378150    0.30573959922477    2.00095037774299
H          -1.21648111628933    1.38469585335166    1.57897922395745
O           2.46017465754632   -1.88973056270770    0.56607858909596
H           1.75164145010522   -2.27746043139178    1.09569208563869
H           2.07113827714032   -1.88539131151688   -0.33659849861670
H           2.37122429149371   -0.32221054954988    0.80486387685965
N           0.19802381148278    1.34529628456616   -0.76864551354058
H           1.06589795497081    1.10370295100317   -0.24105852285543
H          -0.43369922332339    1.91458988775404   -0.15865947247785
H           0.39037307139988    1.82951162868963   -1.63976762197563
H          -0.35510177445935    0.45677370742002   -0.97943951009946
