    26
        -50.45717730  Gyration_radius:  2.52448947538 Dipole_moment: 4.853
 S           0.05359983037149   -1.28579848362009    1.63950464419072
O          -0.69217690069140   -0.22828723942680    2.30141348003358
O          -0.65268834218497   -1.70627382663012    0.42779392790536
O           1.43710295949310   -0.95965970181095    1.39212096703467
O           0.04907260885809   -2.53167495592237    2.61753090808969
H          -0.86970586508420   -2.62820112357751    2.84979909595319
O           0.14354123775425   -0.14551747537049   -2.90495219885925
H           0.46912276083304    0.30771129924936   -3.68333095504556
O           0.47034846611154    2.44183573017197    0.17369456390717
H           0.33272619111788    3.38729276850891    0.24509439092324
O          -2.07005241472788   -1.85637934440069   -2.01364130562841
H          -1.66628578643398   -2.12824149442570   -1.18077526908627
H          -1.33339031611397   -1.66713339063598   -2.60316107143222
O           1.89155931198334    0.22221237251240   -0.97194544621842
H           1.81622619913961   -0.33954854949877   -0.17548050689515
H           0.88998049196487   -0.15285947271611   -2.25249832945796
H           1.66558491482352    1.11356222252140   -0.67726055195518
O           1.22603872274272    1.52237099547074    2.47442369565414
H           0.41889464040769    0.97870975795330    2.61238723779715
H           1.89293421962308    0.85505824513728    2.26764562807813
H           0.78653538413150    2.14237987457089    1.07994520366176
N          -1.26917407342106    0.55753206591766   -0.72042604358875
H          -2.26897913377876    0.73239275030654   -0.71055636644454
H          -0.93436396986421    0.36977141837461   -1.69399673750566
H          -0.71805315631926    1.34269889785365   -0.30849827704006
H          -1.06839798073831   -0.34395333051407   -0.18483070407213
