    26
        -50.46925942  Gyration_radius:  2.46504696397 Dipole_moment: 3.419
 S           0.38277547250990    0.39558690277213   -0.86060646503762
O          -0.41819732661867    1.60400701504248   -0.93439032017915
O           1.63200895255559    0.60874782580561   -0.12443540439703
O          -0.37914917061536   -0.70713593800219   -0.27532142205811
O           0.82397779128226   -0.03432094978459   -2.28094257281660
O          -2.69418333928860    0.07420977162607   -1.29257103531353
H          -2.50226047161245    1.01612395033663   -1.23316717600372
H          -1.97329393946356   -0.34313201627097   -0.77932821207897
O           2.53207063646738   -1.84798073116356    0.43871467107157
H           2.56136168345695   -2.36587998776051   -0.36683463145160
H           2.30238687631310   -0.93782213639912    0.16279831577065
O           0.33466637197487   -1.83849571641025    2.02882264467008
H          -0.15912294877140   -1.59534550568765    1.22007367576957
H           1.20267891828736   -2.11358115570025    1.67512146075070
O          -1.08899992581158    2.22779985667942    1.51354597601078
H          -0.88809403574326    2.00210436877518    0.57140934825134
H          -1.20089780949460    3.17966281001652    1.53671451302886
O          -1.40202036435023   -0.57229794641732   -3.49052366517258
H          -1.48930598978178   -1.52142722625764   -3.60114098755265
H          -2.03530551575674   -0.31804174726907   -2.76967501990094
H          -0.00232842685011   -0.19730398032698   -2.81842580796270
N           0.90137633330688    0.67225944948421    2.37703716925567
H           0.61945410975643   -0.36722662402799    2.44450270410340
H           1.52394894228696    0.95616680109445    3.12531772362186
H           1.35983867186519    0.74135603603206    1.42446133388645
H           0.05661452401587    1.28196687376467    2.30884318370548
