    26
        -50.46925923  Gyration_radius:  2.46471706288 Dipole_moment: 3.419
 S           0.43569448221132    0.22177614373760   -0.89676095260326
O           0.06279829705908    0.74142580666822   -2.30667966229791
O          -0.80319072804618   -0.15168955890184   -0.21501006981827
O           1.33450994786937   -0.91266000403120   -1.00757452380596
O           1.06986588428460    1.36184181160253   -0.22888820134774
O          -0.83703747567593   -2.61656346476226   -1.17830578033582
H          -0.97820925587351   -1.79130325738387   -0.67203485063788
H           0.12034699715377   -2.72160933504330   -1.18326804369555
O           1.88444580700488   -1.68496845895545    1.42851918785799
H           1.66876345547096   -1.44661293931705    0.49288259395502
H           2.75562563698388   -2.08433302393414    1.40297004498411
O          -1.50785450437270    0.93256828373279    2.11446472801772
H          -1.52761999703640    1.83396701524363    1.73855202496089
H          -1.48192338425448    0.36766887332973    1.31624014801488
O          -0.95174688316064    2.98595429945414    0.43164229917369
H          -1.48782433368964    3.15462809158095   -0.34434860425102
H          -0.17558596793614    2.48111954224619    0.11542134536343
O          -1.20994941413199   -1.23847367563041   -3.38752897659819
H          -1.11163988474955   -1.90266671604060   -2.65645076040213
H          -2.14588378600708   -1.03311637184954   -3.43859431701623
H          -0.38075287935376   -0.00672635530078   -2.79838703269807
N           1.07352194569992    0.70687973238914    2.29427979454997
H           1.38923816880138   -0.28599264420626    2.22776769817425
H           0.00470474765892    0.76066838800910    2.43283457302148
H           1.58423163669137    1.22889022702450    2.99771192912107
H           1.21547149738571    1.09932756038891    1.32054541830307
