    26
        -50.45634950  Gyration_radius:  2.66548980885 Dipole_moment: 5.741
 S          -2.18422756675495    1.12838014548054    1.13802647285174
O          -2.69279714396056   -0.14494442532901    1.60116433289200
O          -1.02000860013009    1.57360965737911    1.91413540201917
O          -1.92457915349903    1.19177347703789   -0.28174494528380
O          -3.33555004157181    2.18785982191767    1.44184595612574
H          -3.71108397936204    1.84543935518971    2.24714657025175
O           0.10071303905239   -1.19695650231033   -2.31635888676786
H          -0.31800865865451   -1.81162822871200   -2.91934411837131
O           1.61323444689760   -1.24191462966189    1.13742093846022
H           1.68699170674440   -1.62967184765786    2.01034811520946
O           0.20848097108043    1.48757054926206   -1.78787439523894
H           0.22628495379446    0.59046560224683   -2.16196140055911
H          -0.68431091782562    1.54746281801256   -1.38396648577183
O          -0.81999763000443   -1.51365923656252    0.35921113177513
H          -0.85417029434296   -1.22173786240233   -0.56328410451189
H           0.65010695571914   -1.38052423883641    0.86498448967298
H          -1.55162952240952   -1.06008723182354    0.83117021776793
O           2.43159819296508   -2.13837940785124   -1.31697777440902
H           2.22953069594348   -1.93609390275815   -0.38422479502641
H           0.93456656737329   -1.61736599047876   -2.01651210285820
H           3.21418482971109   -1.63543588561022   -1.54724288572739
N           1.19589610855942    1.40400145296338    0.62789692471109
H           0.27818196939036    1.53402391563033    1.18547533293571
H           1.86714018957950    2.12071606464873    0.87778928539481
H           1.54422562752258    0.45303261951246    0.85059029001445
H           0.91522726419152    1.46406390069979   -0.40771356555629
