    26
        -50.45717732  Gyration_radius:  2.52442352933 Dipole_moment: 4.852
 S           1.50661466823556   -0.51915147812020    1.34276703888794
O           0.22922589199053   -0.02790278162086    1.86314872602696
O           1.33174768530485   -1.85113264107487    0.78781061148337
O           2.13489076697794    0.41347618071225    0.43885948973765
O           2.47351503028797   -0.66444236113253    2.58889750037092
H           2.08375441447590   -1.37415772066991    3.09070656250456
O          -2.06343422205568    2.03253585204819   -0.30026526404013
H          -2.52765120715188    2.56896963087766   -0.94372329863372
O          -0.03107553742759   -0.77123488551864   -2.36994486050152
H          -0.24293734617228   -1.28183793693804   -3.15249000148149
O          -2.47344280835677    0.69039331218086    2.27895917934685
H          -2.48554420985916    1.47732528502711    1.72525629864068
H          -1.54123908164678    0.52127453807363    2.46065482741160
O           2.34830037135289   -1.40617861409797   -1.56644258687666
H           2.74094751751099   -0.57430369991841   -1.27219982066330
H           2.04284437732191   -1.80609992652747   -0.72203675740309
H           0.90614861449353   -1.03368973661956   -2.11770166904451
O           0.42549292739491    1.77441105231514   -1.11624224638947
H           0.33642351446736    1.08421043569503   -1.78561306866768
H          -1.09968458350539    2.09934726162246   -0.52312560239451
H           1.08145683092614    1.43124349594121   -0.47781035715847
N          -1.44865908676269   -0.58023476186559   -0.06141416122791
H          -0.93792468605197   -0.79827009886780   -0.94551074155056
H          -2.10705089103629   -1.30688546894922    0.20088399326660
H          -0.75009022967224   -0.44043485198281    0.73360032683024
H          -1.93262873104002    0.34276992941057   -0.15702412847453
