    26
        -50.45248422  Gyration_radius:  2.409153514 Dipole_moment: 11.092
 S          -1.12494477547417   -1.89504809692882   -0.35810595174695
O          -0.99249603077564   -0.70909642164799    0.52623880935770
O           0.21069212592017   -2.37879919113705   -0.70097390848244
O          -2.02275597707240   -2.87607013184077    0.14573816531092
O          -1.75302555862672   -1.28755468118337   -1.68227598200247
H          -1.23195229851049   -0.48558881602685   -1.84444001090392
O           2.08862542364674    0.61937427731395    1.14180014000735
H           2.67255202803149    0.89916709171747    1.84800112415807
O          -0.20066848883539    0.94418965625760   -2.12897966126011
H          -0.18824548637223    1.16404348696084   -3.06131605507450
O          -2.24294560907092    1.26572067986872    1.53983838715407
H          -1.89773179316896    0.36742529892796    1.29132496142985
H          -3.10576503629076    1.33175860293143    1.12675163742298
O           1.78036922173229   -0.50166339540987   -1.48092347226722
H           2.13570559386608   -0.15602326011286   -0.65193639723858
H           1.23931939305940   -1.30437891697576   -1.22725646649975
H           0.63265521909208    0.38253745210880   -1.95021246244843
O           1.04371678851265   -1.64675980846265    1.79567493532047
H           0.15885986852890   -1.33449653920535    1.49232159790247
H           1.24493667167801   -2.33902465688895    1.15377237984923
H           1.72293141697661   -0.27737253109655    1.43038778442816
N          -0.02966778740432    2.06956482551094    0.32178990080313
H          -0.17057335417240    1.74193293626811   -0.65888564199734
H           0.18228355532132    3.06152869769916    0.35159455543553
H          -0.91783190300831    1.84155367951405    0.85976523985227
H           0.76595678241551    1.50307974183751    0.72030639148975
