    26
        -50.45717740  Gyration_radius:  2.52439975878 Dipole_moment: 4.852
 S           1.37307854303414   -1.49067431218055    0.48504998510276
O           1.75868641877888   -0.08796305165796    0.65081103485789
O           0.39168968271873   -1.85337561034985    1.49404664323266
O           0.96678020278998   -1.80046293350737   -0.86423331141284
O           2.67069050510005   -2.35089436966431    0.77677747404354
H           2.82634577561811   -2.20963586076124    1.70585869587901
O          -0.02822622260671    2.63437154335707   -1.24072581543595
H          -0.54098453933427    3.21395200292891   -1.80507220867056
O          -2.44760492997221   -0.42387996045525   -0.20597749619040
H          -3.37940485490861   -0.46980349309177    0.01212733427189
O           1.83632837831027    2.71321849923746    1.02607379573892
H           1.57819934312154    2.97093390089190    0.13558079781880
H           2.13582517175985    1.79935907165126    0.94995186198068
O          -1.43625792463553   -2.80601683909650   -0.09489355761041
H          -0.84706733914894   -2.60673893813241    0.66629852518043
H          -2.11265570230892   -1.37141352553033   -0.17551017295799
H          -0.81512024820294   -2.84616952003157   -0.83337254211370
O          -0.36899584059090    0.16986547256530   -2.09960537375121
H          -1.23007981479415   -0.04720010994748   -1.72041630364160
H          -0.01977963101866    1.74761742370881   -1.68403349841099
H           0.24031542821796   -0.51802421239503   -1.76618931490635
N          -0.53507964378720    1.12932186627398    0.93645799295624
H          -0.41978193530808    1.90789237159526    0.24666798090191
H          -1.32109249162864    0.51157687127030    0.63547666082335
H           0.38478960125398    0.58918457089019    0.89385133423709
H          -0.66059794245812    1.49495914243279    1.87499948807594
