    26
        -50.45248421  Gyration_radius:  2.40916230827 Dipole_moment: 11.091
 S           0.59838772240203    2.07283291254856   -0.57493090331597
O          -0.51597195372941    1.22140472440701   -0.08565393821255
O           1.31837218832227    1.35103942156748   -1.62187848372633
O           0.19318835802963    3.39469896218356   -0.90782428980927
O           1.56481195731326    2.15622613339613    0.68047180718950
H           1.61704210520998    1.24161713542606    0.99937788461172
O           1.72675027599593   -0.46761767930962    1.50458748915353
H           2.55327536458517   -0.62573043539898    1.96240528165086
O          -0.81384505719073   -1.99243510169628   -1.19050742601634
H          -1.43440544301948   -2.61407236122896   -1.57314092845827
O          -2.23673910152288    0.93082746284395    1.77046229243446
H          -1.70022734329162    1.23690432094044    0.99177250396828
H          -2.03895832810176    1.54881057075366    2.47646222623804
O           1.88992220735441   -1.06269136579460   -0.95596473509377
H           1.08990041070258   -1.54947241515714   -1.19253253180088
H           1.74739869445189   -0.13144410607431   -1.29345134406582
H           1.87210484602307   -0.74841722283260    0.53408675945087
O          -1.05942189890496    0.26467354389398   -2.41501926015628
H          -0.23376982360006    0.54634172423478   -2.82822070276956
H          -0.92926870350921   -1.13575990915443   -1.71390870492766
H          -1.03307721221319    0.74342294226436   -1.55326273312064
N          -0.84365462792485   -1.29614254817234    1.41267829418600
H          -1.08455109449453   -2.09250496493805    1.99367506892945
H          -1.47348467853424   -0.46237087182781    1.60861359287474
H           0.13853612083398   -0.98720370412848    1.58232072274430
H          -0.91231499518777   -1.54293714874924    0.38938206804436
