    26
        -50.46925928  Gyration_radius:  2.46476943868 Dipole_moment: 3.418
 S           0.17790594396730   -0.47133063510438   -0.88877508531919
O           0.62142057079306   -0.15675938027009   -2.33837976898296
O          -0.95559254281716   -1.37806702242696   -0.90235026462729
O           1.35469725525988   -1.07265107071478   -0.25500943396869
O          -0.16668450993248    0.79400982975150   -0.24126283102828
O          -2.67899203292950    0.77819322514192   -1.07336524581448
H          -1.82902192232289    0.94365846295301   -0.61782779177865
H          -2.77868699810934   -0.17889360278860   -1.03226124040460
O           2.99942210751870    0.98023137745102    0.23729749016017
H           2.48335318748080    0.18993032069855   -0.02033133094682
H           3.12543314370525    1.48391426885416   -0.56797995089939
O          -1.59730716996570   -1.82986103823478    1.59096378529892
H          -1.99319352407434   -2.70246632823456    1.62212637426351
H          -1.40877913521342   -1.65233527737793    0.63604895449805
O           1.03108551871753    1.59834327647841    1.99832233158897
H           0.42654724034784    1.53661345849542    1.23167960795034
H           1.91208393003338    1.60607833202857    1.57637002878980
O          -1.42048675139890    1.06111858948121   -3.36571594216040
H          -1.22381757100876    1.99479749388576   -3.46753503980453
H          -0.15442646024861    0.26254274867295   -2.80806098782489
H          -2.04483199485387    0.99168573887104   -2.59710198800037
N           0.83104836721617   -0.97414948189989    2.29676860935236
H          -0.16185918869078   -1.29668735462564    2.29538199809567
H           0.88519659783140    0.09968249514960    2.38799843730619
H           1.39223877294596   -1.45289909010559    2.99247233934012
H           1.17324717576125   -1.15469932612730    1.31052695491827
