    26
        -50.45248438  Gyration_radius:  2.40931425391 Dipole_moment: 11.098
 S          -0.18841129880127    2.03623546780979   -0.89808569394391
O          -0.55610376609957    1.18079823030511    0.25913397662200
O          -0.32523251647261    1.25394289215914   -2.12481398434457
O          -0.84523952637615    3.29752798595581   -0.89778359734668
O           1.36247534004959    2.28935776864408   -0.67932260623237
H           1.71576070368246    1.41375979372301   -0.45676048083922
O          -1.19789396453065   -2.13697927060463   -0.21623087389090
H          -1.84062471325289   -2.82427643054338   -0.03641001376788
O           2.32290925253248   -0.23075247112491   -0.11580420908288
H           3.24628166901220   -0.30081651091839   -0.36120185343050
O          -0.46359519214793    0.98106452520009    2.79723813455909
H           0.10289368986206    1.67323617236521    3.14244854951039
H          -0.65307956453855    1.23773807038045    1.85590525992191
O          -2.45735482773045   -0.02430339429712   -0.99350512154730
H          -1.89197809997845    0.53622349800981   -0.41154460584075
H          -2.18304260628974    0.25852560821175   -1.87474313564853
H          -1.73264534245411   -1.34176624003389   -0.53718348806488
O           0.79658740478487   -1.05102214855782   -1.96853029499708
H           0.36385991709243   -0.16536284374977   -2.14089971636556
H           1.78343490611134   -0.59669429266177   -0.90122139421411
H           0.11256029291044   -1.59901176848114   -1.56266866498436
N           0.51224705623797   -1.19627378493561    1.64194847939920
H           1.29848340354823   -0.82247122989940    1.06657930237194
H          -0.22028260517176   -1.54342731349911    0.96699377704886
H           0.82554508685770   -1.94444090237293    2.25173806237000
H           0.11244531116095   -0.38081140108286    2.19472419273888
