    26
        -50.45248422  Gyration_radius:  2.40915358783 Dipole_moment: 11.092
 S           1.53760716198789    1.57604847270646   -0.36984823503757
O           0.79897052843416    1.70862447189883   -1.62377755221167
O           1.29667823758495    0.22033248466017    0.18699642526000
O           2.91514748710501    1.92422602089581   -0.42887662307568
O           0.83452377982378    2.52850452293411    0.68630548395168
H          -0.02079288723859    2.10321054627345    0.85518294386755
O          -1.60547497757117    1.31142423330678    1.08021798842147
H          -2.26195689195062    1.95419630659800    1.35154205214899
O          -0.97263231182620   -1.85024459764871   -1.29625691037316
H          -1.08530690600925   -2.73570285877802   -1.64446560850877
O           1.53267746583455   -1.23452638096340    2.26511470289315
H           1.68166665966122   -0.68008500743375    1.45377860538059
H           1.78840345877476   -0.68021012066311    3.00457636512817
O          -1.64254061255537    0.93618713747386   -1.42832245020839
H          -1.69993346495748    1.20635495498214    0.06933574028994
H          -0.72293820840284    1.29334570088766   -1.59627201821586
H          -1.58315998343281   -0.01549178103148   -1.58237755098149
O           1.29421190667004   -0.93231561280824   -2.11696295689664
H           1.19409401254445   -0.12020508149758   -2.62903025682456
H           1.48849851775466   -0.58506600148456   -1.21464699004420
H          -0.08788382705813   -1.52519387893724   -1.66058482644905
N          -0.95145021148958   -1.29741786980163    1.34127221846177
H           0.02060036544061   -1.35986718196916    1.76726714438258
H          -0.89613290789557   -1.56759137342855    0.32309486610683
H          -1.61561010616714   -1.88428042695583    1.83552576424169
H          -1.23726626506139   -0.29425665921513    1.37121166828954
