    26
        -50.44806667  Gyration_radius:  2.62570689581 Dipole_moment: 6.901
 S           0.41216519573735    2.14384570583331    0.65031921784487
O          -0.91929020676218    2.07497950318571    0.03428276230882
O           0.28858285014569    1.95192170566075    2.09809647323479
O           1.37301750439407    1.28815388930348    0.02245287481118
O           0.91876184184408    3.63163318950905    0.45052143600269
H           0.32493318142605    4.16326347695349    0.97266704691920
O          -1.08422885860705   -1.75156668280938    0.88144368978307
H          -1.19329750781074   -2.66273847150873    1.15552738977571
O           0.57246437971237   -1.06654460632369   -3.17710441329485
H           0.07199450183671   -1.64446867815046   -3.75457058926553
O           2.39450262790707   -2.09213625660997   -1.48731467488419
H           1.73245242032593   -1.75138306865324   -2.12933595213197
H           3.15931129224917   -1.52298498967591   -1.59084785719824
O          -1.29722050869986   -0.16444257095487   -1.47647759132216
H          -1.08497254185462    0.70104365003719   -1.08681061867036
H          -0.08661083827351   -0.63339428633207   -2.58950932486241
H          -1.26574077975210   -0.80715755920629   -0.75438694452946
O           1.39468535976264   -1.24091628429369    0.84011071486899
H           1.78450745824090   -1.68293725345880    0.04861818864064
H           1.46458912004389   -0.28646153004334    0.63352283538906
H          -0.07128606519478   -1.58107163737407    0.87209128738353
N          -1.82123143203562    0.56359842702740    1.90949218301164
H          -0.92729874524020    1.01495098045528    2.29447386209166
H          -2.62609028411639    0.65414313730531    2.51932300104022
H          -1.88909476672330    1.13686808763326    1.03266020573378
H          -1.62560517854783   -0.43619786749581    1.63075476733105
