    26
        -50.45248440  Gyration_radius:  2.40932299844 Dipole_moment: 11.098
 S          -0.25607496911972    2.01252331496549   -0.93414333015229
O           0.07242284998826    1.26144346334746   -2.14391348737390
O           0.27415143424669    1.27931846458578    0.24373746921880
O           0.10224092653736    3.38862149926470   -0.94956041548780
O          -1.82773304383699    1.91574942700091   -0.73993279499206
H          -1.98018433806794    0.98692011684457   -0.50530845544630
O          -2.21038314112800   -0.74614716065171   -0.14094871242291
H          -3.09057202129961   -1.02470940934964   -0.39671579651678
O           1.64836447000381   -1.81808625556667   -0.16029836989745
H           2.42528102834755   -2.34137334564412    0.04070659543302
O           0.18563906239661    1.10362716491803    2.78375278613497
H           0.32888991684901    1.38140410130000    1.84024017703670
H          -0.52693768540676    1.65686315403563    3.10831674227665
O           2.41701428664237    0.51020462014839   -0.96154389927813
H           1.73120701945697    0.93922668892791   -0.39751667216661
H           1.99727954165122   -0.92857828794073   -0.48949637924902
H           2.10105636629076    0.71066757565523   -1.85137985226363
O          -0.50878222811938   -1.23325452888212   -1.95818122602791
H          -0.28196825095468   -0.27607654623841   -2.14182307996729
H           0.27349524990836   -1.60798211775923   -1.53328921596713
H          -1.58981399502448   -0.99443034109857   -0.91236178558872
N          -0.25940288416686   -1.25468888101644    1.65775055677509
H          -1.09959067887465   -1.07534806787176    1.06540958889601
H           0.54332349028319   -1.43972423470861    0.99890715112262
H          -0.06122503120347   -0.36186500519868    2.19994814887618
H          -0.40769736539961   -2.04430542906752    2.27764424702727
