    26
        -50.45248439  Gyration_radius:  2.40930935367 Dipole_moment: 11.098
 S           0.43427258281921    0.68263938781677   -2.08173199897647
O           0.63638931678609   -0.40879348486418   -1.09478924738617
O           0.59474063187608    1.96709104337144   -1.40350062524140
O           1.19737062012261    0.51630443449769   -3.27013231031185
O          -1.10052730990542    0.54562562736917   -2.45962219612344
H          -1.54524678142171    0.43297048938582   -1.60490007465266
O          -2.31865258493834    0.29409549283143   -0.00121170791826
H          -3.22325814627882    0.60689423626690   -0.04109882858797
O           1.01856181250542    0.34001146975371    2.21249801404079
H           1.58289347415464    0.18435495153252    2.97086462164740
O           0.33381379332276   -2.90372249350099   -0.67743768557299
H           0.61618735142373   -2.00648793736614   -0.99857795139416
H          -0.19425889513959   -3.27503799725734   -1.38626794443969
O          -0.73376412822496    2.11001347324841    0.78976856802532
H          -0.13335595302196    1.71364850580071    1.43421740373470
H          -0.21308802774504    2.16652222672349   -0.06290875911460
H          -1.75522234914706    1.07292894755451    0.34199785007392
O           2.51417997114645    0.82312765894448    0.16712569300283
H           1.64394745718791    0.54593683279863    1.44580643197087
H           1.95762210391189    0.22927734288968   -0.38974223597242
H           2.33354187311586    1.68945571533689   -0.21844418139109
N          -0.73873016197192   -1.48054547439006    1.28520180532426
H          -0.31208655468929   -2.13513573761757    0.56418295953387
H          -1.16195565159645   -1.99276579521035    2.05218526178301
H           0.00970014522683   -0.82625104550659    1.63794880928035
H          -1.44307458951691   -0.89215786041002    0.78856833866902
