    26
        -50.45529456  Gyration_radius:  2.51428516827 Dipole_moment: 7.420
 S           0.13499456831346    0.97632378652425    1.87531814084107
O           0.84703597140065   -0.17028009324098    2.43837008280889
O           0.84284394396358    1.57153225503032    0.76507026544058
O          -1.24940117517530    0.64487888912989    1.58203577751129
O           0.08023022718614    2.07078880650055    3.01840602796032
H           0.97832714623184    2.38100363334099    3.09146420993734
O          -0.29571435105722   -2.16408893152984   -0.81356721893388
H          -0.00036938885471   -2.93113424721420   -1.30574972490446
O          -0.14855800069949    2.27862870822624   -1.71997424786457
H           0.26454328520567    2.25020183458733   -0.84331883366411
O           1.48723285594867    0.70441922404678   -3.08287765890691
H           0.96112819886775    0.36993317191781   -3.81036574234113
H           0.94128494684121    1.41516918392028   -2.66025607256827
O          -1.87921402828604    0.25983757388176   -1.04622850610389
H          -1.45068957039027   -0.59780980824259   -1.15368358709589
H          -1.77020263164689    0.50226094587373   -0.11131793008077
H          -0.91217165633899    1.67566245190253   -1.64803079730996
O           1.66509998226367   -0.54328605097079   -0.71838699741435
H           1.74622754338636   -0.13998024495258   -1.61359332941174
H           1.48114559954788    0.20502721732049   -0.12238199967275
H           0.50009739867825   -1.52542711020760   -0.79116601501132
N          -0.86405307357566   -1.90139147817035    1.74629498119392
H          -1.20192174116377   -2.65846384705876    2.32995390030948
H          -1.49886677627956   -1.07732431660553    1.71879152571615
H           0.01259907881092   -1.40477681965089    2.12820265112585
H          -0.67162837314106   -2.19170475438163    0.74699107842078
