    26
        -50.44806698  Gyration_radius:  2.62574776931 Dipole_moment: 6.902
 S          -1.93712672280129    0.50149560907982   -1.08784749387639
O          -1.84674426294802   -0.50234469949745   -2.15220100005845
O          -2.25569163759487   -0.16279780474487    0.18254542957481
O          -0.80566441273284    1.37465810607279   -1.00406120468888
O          -3.19012458227845    1.40246310291484   -1.44615960231062
H          -3.89610421747420    0.78356820723913   -1.60926304480219
O           1.30281554430998   -1.81489356823356    0.17769820013332
H           2.12551956023939   -2.30475000817042    0.15716505930926
O           1.30531927623277    2.03168991312442    2.39372960897091
H           1.72330680969614    1.83926651310213    3.23413695291827
O           2.77638676983487    2.14266753314437    0.14628413231628
H           2.47215035619581    2.93728657308728   -0.29605623059764
H           2.27336163886303    2.11034938703127    0.99041778219276
O          -0.18472387624752   -0.15687196248195    1.95693505260387
H           0.67110678828846    1.29753258678544    2.23198983164764
H          -0.95758023208796    0.00582043289541    1.38921826630318
H           0.41001464567192   -0.73139565022629    1.45529526400437
O           1.57741514470762    0.23170664821495   -1.28616420331019
H           2.14564861466114    0.87857410729223   -0.80402386096506
H           1.45087083208368   -0.99298632109856   -0.42058989156082
H           0.69819284969705    0.66191673404340   -1.30667821965929
N          -1.16423675541149   -2.36467824041383   -0.57791509104129
H          -1.51839587827345   -3.31364014801434   -0.62228941268716
H          -1.33600530237461   -1.79107074840384   -1.46865916230544
H          -1.69722354526383   -1.74552555388084    0.08070981249688
H          -0.14248741498946   -2.31804072888843   -0.31421697461570
