    26
        -50.45248439  Gyration_radius:  2.40930683169 Dipole_moment: 11.098
 S          -0.51825793383040   -2.17243304512549    0.00908111066437
O          -0.18382411679036   -1.00751709358935   -0.84955576230831
O          -1.43398783705219   -1.73535985980661    1.06073146035949
O          -0.93126240922920   -3.31603850555910   -0.72839818872395
O           0.86460023733310   -2.51165624988105    0.70894876512687
H           1.20442466457439   -1.64821737933188    0.99180802909954
O          -1.26187608535467    2.11079024480533    0.02149221247541
H          -1.72118928925272    2.88176798405032   -0.31383311149505
O           1.75148547070648   -0.04144373749440    1.54701650384068
H           2.32916385512098   -0.13176354593251    2.30588085178699
O           1.40515757606883   -0.14975649831820   -2.64671389848545
H           0.70838800886562   -0.62744947511156   -2.12305469312693
H           2.12145261677091   -0.77807963282605   -2.75306078121967
O          -2.54967246020685    0.00413307784452   -0.72510840149947
H          -1.81183634584669    1.31635341749613   -0.27471832045824
H          -1.70246843109906   -0.43477494476469   -0.97434961571825
H          -2.84024610259448   -0.52898798319379    0.02533613794370
O          -0.64677157646705    0.40413924468103    2.24336044352108
H           0.81851116380182    0.15418461310774    1.91186925379502
H          -0.99047915393005    1.10582387342049    1.67554554875895
H          -1.01840739786714   -0.44766823083097    1.87232650739275
N           1.29561752062097    1.53281995678833   -0.60106602266394
H           1.60316898700699    0.94282844488820    0.20284156991004
H           1.84841380653869    2.38117703868029   -0.66784637232606
H           1.38196302449226    0.93804348210599   -1.47808895335087
H           0.27793219761889    1.75908479389560   -0.44044427329904
