    26
        -50.45248439  Gyration_radius:  2.40931670914 Dipole_moment: 11.098
 S           1.37044527267638    1.65767011794856   -0.60194537440214
O           2.10111316248221    0.55029087764496   -1.21464935587302
O           0.51845377773232    1.12302938548387    0.49094194918668
O           2.16170109087641    2.77109771154121   -0.20638099238439
O           0.31075582100836    2.16196836832421   -1.66962133397934
H          -0.33318406560841    1.43846643928143   -1.72348968627728
O           0.27201303515635   -2.24825019928233    0.95896042110841
H           0.34344529824033   -2.93459213290731    1.62353191320890
O          -1.45191059693785    0.05058757810468   -1.83082108771050
H          -1.87983712910384    0.03510897651826   -2.68778371366540
O          -1.41684470540933    1.66111906474925    2.05792863860616
H          -1.81451879099693    2.49016738701989    1.78643480362599
H          -0.54661250949881    1.61488175152465    1.57995699479062
O           0.59241162294041   -1.45040202994817   -1.77754078590529
H           0.56971579940097   -1.94592420262913   -0.94877462833505
H          -0.65859096852309   -0.58901587952214   -1.88896740244532
H           1.25358038181079   -0.71355224125075   -1.63172074746405
O           2.25472226695014   -0.62348766139058    1.24670082688424
H           1.64889265455207    0.14710973540127    1.13868706500308
H           1.07691516993881   -1.65258944995467    1.09554508624822
H           2.79692252180162   -0.56740391863140    0.45002354103792
N          -1.85623475881997   -0.60731155198043    0.75838392201153
H          -1.82880901438296   -0.31191251002348   -0.24208302029723
H          -1.75596005962937    0.27166575249940    1.34807113194079
H          -2.71404926268823   -1.10569694679355    0.97173635235406
H          -1.01453602396618   -1.22302442172561    0.91687547273344
