    26
        -50.44443801  Gyration_radius:  2.50944316375 Dipole_moment: 4.859
 S           0.84298000003170    1.15846560592040    1.67638524419975
O           0.95839470123748   -0.21011655932167    2.20165102498598
O           1.24316956323077    1.18765684645734    0.27297355553273
O          -0.43453671105694    1.76012759026875    1.92280651023099
O           1.93112331084050    1.98740894775774    2.46604418076930
H           2.70821009195536    1.45798385498909    2.32156364292482
O           1.46152335612887   -2.97128006377195   -0.35640415821582
H           1.27363614731383   -3.69600506075076   -0.95461471965644
O          -1.73417905225950   -1.06593614190415   -0.64510662415165
H          -2.60992742730686   -1.45077478618199   -0.68483592289912
O           0.19106506785831    2.34095048155186   -1.94710439286006
H           0.55144515650046    1.73786801542657   -2.60150788987931
H           0.65014973259115    2.12016581506949   -1.11664994233649
O          -0.34204836351083   -2.04577071275565    1.20537626302375
H           0.17896194950731   -1.24706083082596    1.68980866030799
H          -0.96166273410250   -1.61689757461303    0.47301624954819
H           0.38977967550057   -2.53176025410256    0.68432995220169
O           0.89904807092713   -0.71992822871091   -1.55807410138732
H           1.12385242132754   -0.02372805504594   -0.90533367130609
H           1.42071967826990   -2.13413213522272   -0.89571752213498
H          -0.06544355020513   -0.79157013365981   -1.52672071985931
N          -1.97377011669345    1.41514492723765   -0.34650565802446
H          -1.50658803980206    1.62064348565194    0.54341369394941
H          -2.89840796623052    1.82472226472961   -0.33057918976147
H          -1.42139683302969    1.87389927035736   -1.07483738071013
H          -1.87609812903619    0.01992344144883   -0.51337709449969
