    26
        -50.45529449  Gyration_radius:  2.51420690418 Dipole_moment: 7.419
 S           0.91506576675744    0.61832493297914   -1.80813664707259
O           0.65196174138012    2.01901145543157   -1.48015229253360
O           1.75611740576113   -0.02733949655865   -0.82646044960264
O          -0.31811230041429   -0.09761316489719   -2.08994679395098
O           1.72617983929841    0.62489164165179   -3.16806171481660
H           2.58486035456392    0.96243008195242   -2.92954179799344
O           1.37692861823237   -2.47110212645745    0.41641972444197
H           1.71126752898343   -1.70715423550897   -0.07811408804409
O          -1.78899484304485    0.64189592524071    1.34944153212048
H          -2.15422055721268    0.95955850407871    2.17622773088606
O           1.32739739681914   -1.48197047407288    2.87178579131924
H           0.66688006294349   -1.99930390195069    3.33426451776364
H           1.47209920083260   -1.94183703149598    2.00603766459508
O           0.74476733449683    0.77822141325309    1.55654200418075
H           1.02234645039551    0.04263423871902    2.15034603629905
H           1.18327880037820    0.59298624050634    0.70661287596452
H          -0.77539765330152    0.69865877123351    1.45392045255841
O          -1.21952864206660   -1.78448334009025   -0.14214336380414
H           0.41786634844794   -2.47511478507639    0.23726218931222
H          -1.52761831029117   -1.11011765984382    0.47515959962877
H          -0.90581351240858   -1.30846117006649   -0.92934151846310
N          -1.82477042552683    1.72281481533460   -1.05389908661487
H          -1.96392236362467    1.39730188333488   -0.05669752971604
H          -0.82863396636063    2.12381219661018   -1.14221063829840
H          -1.69489926444177    0.87742618502345   -1.64679184596324
H          -2.55510500068290    2.34452911073811   -1.38252235224393
