    26
        -50.45529498  Gyration_radius:  2.51407839208 Dipole_moment: 7.414
 S          -0.25470548212738    1.35497115665223    1.60803167339148
O           0.46836645292065    0.45306005901675    2.50346699783683
O           0.55723167869345    1.79327564438878    0.49599339735285
O          -1.53645436254148    0.79262472671074    1.21613170265537
O          -0.59614869464634    2.64688192586178    2.45763141434134
H           0.24276843231716    3.08485517923842    2.56960721087090
O           0.05042214184205   -2.30868542537825   -0.33499234241843
H           0.49504911401533   -3.11677110499682   -0.59420094498645
O          -0.10127878034679    1.83295154914975   -2.19080715895270
H           0.17082149396635    2.03974622515010   -1.28342535436673
O           1.87236741844592    0.23465938262074   -2.94005992827745
H           1.20099903902163    0.94152002287223   -2.76280697370372
H           1.49989633423065   -0.31031044834884   -3.63441232339547
O          -1.70746990610170   -0.21278416485552   -1.31628416518434
H          -1.76989741349438    0.23166879985834   -0.45418153433165
H          -0.80359485977029    1.16387285003773   -2.08718778195477
H          -1.18570009735401   -1.01100939129021   -1.17057945078556
O           1.80136721639664   -0.46058753832625   -0.35366739568059
H           1.45520121541720    0.36520558868092    0.02999182662279
H           0.76521919574124   -1.58058134216615   -0.35401158479685
H           1.98066625422097   -0.24523894955978   -1.29826577842079
N          -0.93667943125353   -1.59083578499822    2.00042745577548
H          -0.18294255463746   -0.91777009236260    2.37341566534830
H          -0.56216383785858   -2.05657230563533    1.12692104116202
H          -1.28855828537486   -2.24595782108413    2.68958557509415
H          -1.63478228176550   -0.87818873122947    1.70367877685691
