    26
        -50.45529534  Gyration_radius:  2.51430703736 Dipole_moment: 7.388
 S           1.46083338913662    1.42620172136978    0.56769105298795
O           0.13991250767363    1.92031096354706    0.25258692768655
O           1.53194916678777    0.84372704171749    1.90704338591955
O           2.00480213523953    0.52003377283054   -0.43025916861247
O           2.42470937477579    2.68258383676065    0.57562020065494
H           1.96458653449305    3.32965856700356    1.10259708384231
O          -0.48431312085427   -2.24645842052929    0.40483365363721
H          -1.05014821734704   -2.94315978974420    0.73998141263331
O          -1.35082108435975    1.47958669367774   -2.03643306136308
H          -0.86191870563956    1.85276427055332   -1.28688440781184
O          -3.38875392345556    0.35298511127781   -0.77597439028305
H          -2.73628128001679    0.88336172825828   -1.30031623644454
H          -3.69070129905647   -0.34186288507467   -1.36240893796633
O           0.19985903263508   -0.78356976039555   -2.00988218529061
H          -0.12384793870981   -1.40410470617924   -1.34591056195917
H          -0.85491093798396    0.67325412640478   -2.27239910270597
H           0.90607810773568   -0.27146124449904   -1.58128418511477
O          -1.52909171219937   -0.03549399516203    1.11357337819766
H          -0.94025281629717    0.71662576429438    0.92253428570320
H          -2.31653719288700    0.10714599145730    0.53891735120482
H          -0.92179645201492   -1.37080282783962    0.69324212880990
N           1.94473637022352   -1.53058926741070    1.13441544842230
H           2.27322323945027   -1.05474303233840    0.26901173745072
H           1.01497641948519   -1.98681041873558    0.91692391192957
H           2.62477307478707   -2.16763816676552    1.53403367926934
H           1.75893534855340   -0.65154507523446    1.72874659940953
