    26
        -50.45634818  Gyration_radius:  2.52080544028 Dipole_moment: 4.561
 S          -0.09899012276134    2.03128574854671    0.31317855536944
O          -0.66440233735083    1.49385800260809   -0.91519692475576
O          -1.11695614882950    2.69768004299683    1.12646341611525
O           0.62411926413827    1.04757303068292    1.08568680930385
O           0.94110202670776    3.14147600235531   -0.11835941163640
H           0.44745831885962    3.73123779142772   -0.68187326260269
O          -0.45170527957231   -2.35941221998175   -0.56770500666781
H          -0.48341768916630   -3.31111401424487   -0.47013264705868
O           2.97640484332785   -0.93404860416171   -1.57311671410413
H           3.38011564977083   -1.52976104352122   -2.20528610675593
O          -2.22450426460013   -0.45003318029618    0.02968918052015
H          -1.79784704786614    0.29000166056258   -0.45277658451442
H          -1.68089231154636   -1.23634726297900   -0.19747538766790
O           0.48987595473916   -0.44462828420103   -2.43437329164948
H           0.05586332835455   -1.19971664025865   -2.01148483092857
H           0.12063816165396    0.33889438112811   -1.99114559916160
H           2.11922911556266   -0.65306659724171   -1.97067525899284
O           1.60160855185451   -1.42965132859792    0.71006695494712
H           1.33279835900564   -0.51320918851774    0.90479666264378
H           0.34717503218632   -2.04331452646768   -0.04325209787471
H           2.26462925492628   -1.32960734666691   -0.00191755523322
N          -1.65666478865553    0.51419317498132    2.34374657226135
H          -0.69856144101955    0.22208982352675    2.54482456617847
H          -1.98971161929873   -0.01456162728084    1.44452335482425
H          -2.27827298733181    0.41134720295651    3.13920821726145
H          -1.55909181307939    1.52883497266141    1.99258640015430
