    26
        -50.45634881  Gyration_radius:  2.52125328521 Dipole_moment: 4.562
 S          -0.52432611979131    1.16470042992475    1.61636856498745
O          -1.13103104456750    2.49280826118572    1.51778229458586
O          -1.44514506547081    0.12352260209438    1.18592990990527
O           0.74690081924719    1.11936100849448    0.93119882267902
O          -0.23684848103537    0.90624638458827    3.14973748319886
H          -1.09819717531733    0.88208839336380    3.55786183227049
O           0.04339363282092   -1.31621905026306   -2.08912955944145
H           0.35009283704298   -1.63024612924514   -2.93979251836450
O           1.88458523727949   -2.78577040101314    0.94700918279199
H           2.06531132074111   -3.71047776862017    0.77490797843483
O          -1.64909074702200    0.64197927545676   -1.42085488141965
H          -1.76929321811611    0.40412635623973   -0.47665439782417
H          -1.09381725645418   -0.08126855151103   -1.78693487521689
O           2.07601252697491   -0.60339408860845   -0.64927934563364
H           1.68636987012886    0.04518634933669   -0.03471465131069
H           2.22273947841990   -1.39229391962203   -0.09011945967600
H           0.86164053984142   -1.03606083440747   -1.57428437443465
O          -0.71029579325567   -2.38339898727086    0.42732232424084
H          -1.01539071385433   -1.54714720648154    0.82011643486217
H          -0.62361878335475   -2.19893037719138   -0.51916866865316
H           0.90607929945725   -2.68250642625084    0.88847836576227
N          -0.29414882071893    2.75916921052433   -0.88417533130531
H          -0.69747891611745    2.86954514960384    0.10931686536495
H          -0.35619798359396    3.59904122110526   -1.45027086189481
H           0.66745942110953    2.44839316590758   -0.73387491303503
H          -0.86570485439529    1.91154590265199   -1.27677623087253
