    26
        -50.45634851  Gyration_radius:  2.52109038101 Dipole_moment: 4.571
 S          -0.34408456755967    1.79085399325572    0.95421115359548
O          -0.27976393425946    1.78303562740829   -0.49945472588568
O          -1.65274527007283    2.23953890459927    1.43151307952311
O           0.02195319457355    0.52531918987092    1.54736779743371
O           0.71307288939662    2.85917776291671    1.44589094212332
H           0.48153568114036    3.66079964764207    0.98445926043472
O           3.41373103211549   -0.65141135295236   -0.36602775128737
H           4.08294008729698   -1.03601080060293   -0.93314232019039
O          -0.01805755044931   -1.94527092878396   -1.52070529818729
H          -0.03473961793959   -2.86135952275808   -1.79785366589457
O          -1.98121794822267   -0.18172912579446   -1.09137262144699
H          -1.42967905961719    0.62797391842281   -1.03943263069528
H          -1.34856041667128   -0.89386455649930   -1.33222324231546
O           1.20675555357317   -1.75505967530765    0.75428476571734
H           0.44931064438410   -1.92317656625958   -0.62951348204471
H           2.10815015937871   -1.48659359228471    0.48534123664974
H           0.82719314410332   -0.94103010973648    1.13302108355916
O           1.53499076218075    0.38508767509866   -1.96596824462406
H           1.00392203058571   -0.41694263587290   -2.07627398440261
H           0.96386209343013    0.99944046889108   -1.47293895635421
H           2.80480950950768   -0.15343228792507   -0.96003517160062
N          -2.54410539953242   -0.15750876129169    1.41657750019135
H          -2.41712781015029   -0.29787996837074    0.33800467262432
H          -2.36161723744197    0.89834635993257    1.53528076382873
H          -3.44448631072686   -0.46279419256165    1.77128058538483
H          -1.75604166902661   -0.60550947102459    1.88770925386479
