    26
        -50.46529203  Gyration_radius:  2.49749325997 Dipole_moment: 4.493
 S          -1.47460456156527   -0.28772141574877   -0.61414131001854
O          -1.29836564252321    0.01128113687148    0.81287984041034
O          -0.90257167074367    0.77756466275978   -1.42753160200924
O          -0.50994603609242   -1.52563894186461   -0.88255172313250
O          -2.81686840315008   -0.66651063064934   -0.94575312572656
O           0.59408869330865   -1.22761102424743    2.20208303888063
H          -0.16305114528296   -0.85113505548003    1.70529368706340
H           0.84429500136450   -0.55183105767117    2.83596790245644
O           0.90897239087600    2.47076332250980   -2.75877900257269
H           0.74279131233847    2.77805983241447   -3.65078127149281
H           0.12067744605652    1.97637610446533   -2.49092046911544
O           2.16390462966659   -1.41241539938101    0.04466087820719
H           1.74341376474488   -1.48700787441231    0.93092308058749
H           1.51513283321228   -1.79693695915426   -0.55763239087337
O           0.23064724231493    1.92186748560309    1.82036752768920
H          -0.24420009465343    2.75117171656951    1.88771695464365
H          -0.42610668576674    1.25773444489027    1.50692435474577
O          -2.30092571386011   -2.77413278950641    0.55428256756034
H          -0.98840618580975   -2.24099360885512   -0.41093828959838
H          -2.23312232165413   -2.44085805151835    1.45266011442257
H          -2.82116022173044   -2.11617055281622    0.05387877182654
N           1.49801459723533    1.09727682364683   -0.40948906732562
H           2.01165694230244    1.69183694055834   -1.05876990904631
H           1.94985839738795    0.14921476346152   -0.25378187912218
H           1.30995288661487    1.57008479784061    0.49607926033822
H           0.54592252534521    0.92573133980303   -0.84264791879332
