    26
        -50.45634796  Gyration_radius:  2.52083087826 Dipole_moment: 4.570
 S          -1.64502627573043    1.19628982879236   -0.31986231412471
O          -1.87148569166902   -0.19672532353564    0.03437091779656
O          -2.21601833556811    2.10349235829979    0.67660373866098
O          -0.25512999614432    1.50267407315078   -0.56771582484333
O          -2.42693411039960    1.44990088278686   -1.67081129258732
H          -3.32113431396656    1.17291248804620   -1.48979773978289
O           1.63401216005650   -1.64167279503836    0.85133144324163
H           2.47459890571939   -1.99788563452585    1.13914962860530
O           1.15370893977804   -1.46361486266466   -2.95718909614407
H           1.54235443118605   -2.24912510539120   -3.34366380273274
O          -0.33714171467388   -0.44188312535230    2.20059848130486
H           0.42021931960689   -0.94141921470676    1.82315794743358
H          -1.02537025646982   -0.47615775990566    1.50233047885331
O           2.03679030570605    0.15529794369452   -0.97104909564417
H           1.88666052982396   -0.34706491194336   -1.79680284458822
H           1.24189602097970    0.71422116197849   -0.89445298802565
H           1.84100152422307   -0.93999321736192    0.15990887246952
O          -0.44291159721240   -2.28160039681462   -0.97001148442245
H           0.22813852788671   -2.31173077182219   -0.27277425142927
H          -1.05601994720302   -1.57620826804248   -0.69933786728412
H           0.46580335474714   -1.78053190339196   -2.32652448896360
N          -0.03620178775207    2.10411898657549    2.01430082443703
H          -1.01153838163081    2.27461460106723    1.58730932623852
H          -0.05869206877112    1.03034505796355    2.22834718772629
H           0.61203719722707    2.25834902472956    1.24012462816760
H           0.16638325024376    2.68339688341765    2.82245962563860
