    26
        -50.45634826  Gyration_radius:  2.52084482312 Dipole_moment: 4.561
 S           1.86490626963692   -0.76073997771019   -0.42162832473299
O           1.08266280449406   -0.20417901325263   -1.51511030314725
O           3.12063341789878   -0.03274532010544   -0.23455859087968
O           1.12684194104427   -0.85453065222817    0.81681613166691
O           2.24938903163731   -2.23421087324365   -0.84790395854419
H           2.67052917988978   -2.13932520749312   -1.69800630631401
O          -2.05894858511136    1.35566359610750    0.13130222957176
H          -2.80086171747036    1.81709362357258    0.52232295785459
O          -2.47891233211490   -2.45658766452405   -0.16460008361283
H          -3.38697092010682   -2.64412937714993   -0.40494065544396
O           0.40168152558222    2.17275451280659   -0.51948203941403
H          -0.53942922739287    2.00423221446559   -0.29295056494518
H           0.66571302835302    1.39787086931683   -1.06016088013212
O          -1.58543065635421   -0.59649129955032   -1.86953425278702
H          -2.12037516271682   -1.87975815314978   -0.87897108885815
H          -1.88520406072520    0.18271471932667   -1.37931543934566
H          -0.61383428949136   -0.54931303676623   -1.84825108538165
O          -1.43916616123589   -0.68426352175068    1.60372523253394
H          -0.49782368299182   -0.82108204468020    1.39099743325650
H          -1.84479844665410    0.58562208198232    0.74315923360035
H          -1.88939875333917   -1.42064254459421    1.14374564258886
N           2.00534137117811    1.58580044992649    1.40160400920533
H           2.47452929710885    2.29861965395285    1.95066929853605
H           1.29215503794835    1.98131170741098    0.67076975560927
H           2.66846342848744    1.00111418128322    0.78459265494871
H           1.51830764245569    0.89520106604803    1.97570901416515
