    26
        -50.45634868  Gyration_radius:  2.52101231421 Dipole_moment: 4.577
 S           0.33459439988866    1.98547302671625   -0.42379739952864
O           1.07668837057101    2.90583493027089    0.43877775036410
O           1.21160903618165    0.99124389243832   -1.02348234995258
O          -0.78908698089317    1.40622679677022    0.27569778700339
O          -0.25083240675677    2.84616735102961   -1.61430769001130
H           0.51529949973194    3.15849404783987   -2.08822162320092
O           0.19941727964981   -2.39612803053387    0.55883820758492
H           0.02002497383698   -3.22830044514492    0.99647848157805
O          -2.27994489888117   -1.44173178896354   -2.22046193545337
H          -2.51637180105320   -2.23993509928202   -2.69415915781923
O           1.92978186982166   -0.43466945739222    1.11099641004127
H           1.85486804456556    0.05658341085992    0.26509045169687
H           1.37951681778987   -1.23765643156569    0.97725825135158
O           0.39186380528415   -1.37771912262702   -2.08002832544276
H          -1.30079017689217   -1.35743431833097   -2.29754697737003
H           0.69983500992907   -0.48736256533990   -1.83696115660338
H           0.49120374392986   -1.90581558062134   -1.27463013552069
O          -1.97947066853641   -1.00012220789353    0.43611366707111
H          -0.66701351454686   -1.88364347687161    0.54980759516833
H          -1.64442642849067   -0.08623379104578    0.38451214504585
H          -2.29476821192799   -1.18255510507830   -0.47181975639403
N           0.71978825112867    1.38526757101054    2.46386684537493
H          -0.27940364553411    1.21386647887920    2.33702341309285
H           0.96724982679433    1.59952111867313    3.42437244828321
H           1.26469086831971    0.53503185770763    2.04020331263355
H           0.94567693608936    2.17559693849779    1.76637974100759
