    26
        -50.45634805  Gyration_radius:  2.52080074913 Dipole_moment: 4.559
 S          -0.37307981416693    1.63753248153929    1.18936112490321
O          -0.51316447273191    1.78467427762587   -0.25154258636017
O          -1.63799060586090    1.89066407512831    1.88057150514186
O           0.18937270318082    0.36543470418604    1.58024447540634
O           0.63800077290677    2.75873699320832    1.65974923628556
H           0.27270892004488    3.57244201845802    1.32289202492762
O          -0.04948173906358   -1.77202190842597   -1.71784726830695
H          -0.01860937675034   -2.65132832265844   -2.09486205611232
O           3.37430313621585   -0.23709553219715   -0.87314141700990
H           3.99503667474718   -0.48010504409233   -1.56099754146456
O          -2.08899963919308   -0.28277559360867   -0.84157771993474
H          -1.43231923110842   -0.89439451384292   -1.24175353401491
H          -1.61389314794418    0.57240544941344   -0.76817979005938
O           1.20164002677606    0.74483006596697   -2.08895627907314
H           2.64347597429920    0.24802019941394   -1.32283418137314
H           0.73763088138566   -0.09457068144625   -2.22127557732085
H           0.64998140506204    1.24121917331482   -1.45973578585994
O           1.45875649538026   -1.68342342302014    0.38709195258995
H           0.53372453518567   -1.79052429765996   -0.89772204088905
H           2.28486331850657   -1.29380726223196    0.03739302964266
H           1.06169125773997   -0.95723101434990    0.90200719679778
N          -2.29473959841711   -0.57472832312247    1.70392930989639
H          -2.19663536140445    0.47700972194880    1.91933328914723
H          -2.30763746830717   -0.59006052357813    0.60909117073610
H          -1.41039188162752   -0.98106385564694    2.01458512313212
H          -3.10424375486091   -1.00983887432695    2.13417636917744
