    26
        -50.45490193  Gyration_radius:  2.54585994689 Dipole_moment: 5.629
 S          -1.50846905635050    1.18830383029191   -1.36772370299644
O          -0.89975196350470    2.49320101712433   -1.38042784816308
O          -1.01174136086417    0.31155552550056   -2.43748975038348
O          -1.47247379011216    0.50464634409671   -0.09233669639586
O          -3.05191179717670    1.42565774887935   -1.69787072014227
H          -3.02493060633857    2.23703747831127   -2.19534229081377
O           2.22340541387802   -0.40948081278390   -0.26063613158902
H           3.09333721382209   -0.21590899542428   -0.61157589100218
O           0.50090931797752    1.33745269572949    2.76658133109047
H           1.17501284528910    1.63251415485840    3.38051090256955
O          -1.28672260895221   -1.91340625735006    0.75190299858330
H          -1.40791223076505   -0.95400031838828    0.51449178722879
H          -2.12038431803408   -2.19850291989736    1.12769265074335
O           1.03726431348283   -1.24844536401493    2.16737845106910
H           0.19817257747412   -1.56580061696963    1.79937601987259
H           1.59615123613775   -1.04396702578362    1.40417498385659
H           0.62892361792073    0.36981129384895    2.66090162660730
O           1.17518604841870    1.87167728137587    0.18731110265993
H           0.43613191186810    2.15663788761705   -0.38260125681044
H           0.80518627043093    1.80039975785815    1.09323698113810
H           1.78924552917581    0.49988580864726   -0.10083599680904
N           0.23463206163386   -1.69041203311784   -1.47596933871883
H          -0.31536866462290   -0.86534822459376   -1.93568590317483
H           0.45638290943736   -2.41101606319007   -2.15344654733966
H           1.10035978120690   -1.26049895793839   -1.05924527629167
H          -0.35063467145024   -2.05199324466105   -0.70237146478867
