    26
        -50.46742639  Gyration_radius:  2.40194366836 Dipole_moment: 4.775
 S          -0.28221872912656   -0.98239940511953    1.38368029588718
O          -0.17740802511366   -1.49376980356061    0.01720448309705
O           0.94605742221231   -1.14701463201595    2.12220742545436
O          -0.59290008120471    0.55817518964034    1.26260567428330
O          -1.48299269262957   -1.48747667335087    2.04478083527092
O           2.98576878345359   -0.26190566432384    0.77706317295481
H           3.75258856494592   -0.30150111011369    1.35056330720264
H           2.24036330395892   -0.66432817253500    1.29623179363767
O           1.81071789983303   -0.92406028963688   -1.64866411067976
H           1.09594811571272   -1.32799346081533   -1.11586268217820
H           2.50218316908587   -0.73341707770244   -0.99883012221675
O          -1.82041257055647   -0.12703523076334   -1.44944081756647
H          -1.21414405478219    0.57659700235059   -1.73755486169893
H          -1.21772375970275   -0.78369588922316   -1.02250090137497
O           0.47996533908292    1.26678091122429   -2.18754031982459
H           0.99206651359372    0.41547036113127   -2.07973284629399
H           0.68071220641386    1.58956402385056   -3.06662528619634
O           1.38798105211647    1.88383275740058    0.32295692848544
H           2.11316304480270    1.23880370233200    0.43201444424648
H           1.11780454440192    1.84820723691892   -0.61250527353822
H           0.20593363747152    1.09571713939026    0.95940855282274
N          -3.14509316870106   -0.03676641852987    0.78991378261009
H          -3.10657302084375    0.87333248104916    1.24003659593742
H          -2.68113301400916    0.02644474353332   -0.18361852188611
H          -2.49357842673791   -0.71666339825820    1.37105523460004
H          -4.09707604366189   -0.38489833280721    0.73315322705031
