    26
        -50.47044855  Gyration_radius:  2.42967241848 Dipole_moment: 3.702
 S          -0.86912444601830    1.82774517334391   -0.86370768983401
O          -0.84866477677979    2.83165625343778    0.16227587666709
O           0.46076587977498    1.39010519635906   -1.28592189664257
O          -1.70213589219500    0.67888651601289   -0.53038879312436
O          -1.52468525872546    2.51024778881104   -2.14208245559374
H          -1.77275106921068    3.36111648993706   -1.79542154523912
O          -0.45035518543177   -2.07246039449081    1.65946784269563
H          -0.76211964804611   -1.23024753541196    2.02218799622397
O           1.57344395051976    1.19505998126432    1.12779388615423
H           1.29039328600882    1.49503656679664    0.24274681234602
O           1.00797967314026   -1.04473952242621   -1.97070342728246
H           1.42669129772086   -0.99781959442929   -2.83116365939694
H           0.73836273833845   -0.11141255292834   -1.75184247117301
O          -0.96761848421220    0.66837770410155    1.98344777901727
H          -1.30154642416565    1.48312602629963    2.36496457282570
H          -1.31310119361440    0.66614971077039    1.06169276542436
H           0.74423032988279    1.15759777364797    1.64243349016665
O          -1.40130793158367   -1.97257789558713   -0.81061777430301
H          -0.62514256665737   -1.93632642139743   -1.38468444576501
H          -0.93565382258732   -2.18226579869074    0.80310505171198
H          -1.70556221401590   -1.04748820643004   -0.76171233889220
N           1.81850852335647   -1.35490542662957    0.61155608845054
H           1.86155012454843   -0.31480922891646    0.87125580382385
H           0.94050453677767   -1.74786240983814    1.10538872247171
H           1.65780923942921   -1.40173529097510   -0.41257011472905
H           2.65952930376828   -1.85045489263507    0.88249990401380
