    26
        -50.45450926  Gyration_radius:  2.45203125783 Dipole_moment: 5.292
 S           0.12021332482247    1.45121779380471    1.49809672120616
O           1.24767891679076    0.41778899019625    1.65926604293508
O          -0.78956129206269    1.00966276627085    0.45665969327695
O          -0.46329206927379    1.67134096312586    2.77159645842476
O           0.83437142323166    2.72047633193727    0.98481777848136
H           0.65383623148050    2.81338290182717    0.00012817376722
O          -0.23678355001799   -2.60305206217184    0.02996359040255
H          -0.07587004153642   -3.52319681802284    0.24261021101707
O           0.79121770086519    0.36861539881429   -2.62827527534681
H           0.90664884511171    0.20193343378523   -3.56442751006880
O           0.12859847411274    2.74907913306777   -1.49251441200924
H          -0.77128372927320    2.48136322034989   -1.27850514364906
H           0.52253550102491    1.98095568375907   -1.95304668407159
O          -1.36744047013491   -0.65330555028717   -1.58909993769746
H          -1.12494490332903   -1.50835319750357   -1.20295529109623
H          -1.34958175898014   -0.03563145185854   -0.83710928073252
H          -0.08163435731995   -0.03952174377059   -2.36036530871100
O           1.81718399575476   -0.88476453229914   -0.42726252758428
H           1.52516084429424   -0.06079307131811    0.79210804637250
H           1.14059953345252   -1.58824758274166   -0.33907726926661
H           1.59731383763548   -0.39069077844299   -1.23810458429271
N          -1.06059451285286   -1.30587854839033    2.20934723550198
H          -0.56964236830290   -2.16764649477503    0.86758231995972
H          -0.25610551640413   -1.09703651458535    2.78982216682313
H          -1.32241931272638   -0.42151779706167    1.78509387296694
H          -1.81620474640273   -1.58618046377948    2.82365093341489
