    26
        -50.44443805  Gyration_radius:  2.50933221414 Dipole_moment: 4.857
 S          -1.33126108305254    1.75599046087217    0.09040597280330
O          -1.63193077717180    0.42674242173060   -0.43227285451593
O          -0.90840004526323    1.65782814312284    1.49525574749265
O          -0.42415141115551    2.50459071960223   -0.72919383634239
O          -2.70347424868118    2.53677789666569    0.13516790138186
H          -3.18859830043445    2.02243279176011    0.77167485934816
O           2.04858595731147   -0.59846917041914   -0.00466312542945
H           3.00591321503152   -0.58717092242164   -0.00411365336971
O          -0.10465476818326   -1.82215656836146    2.78613812808458
H           0.39378022427067   -2.59735033846735    3.04881070799361
O          -1.01907103483080   -0.85477079565846   -2.74459520542214
H          -1.39356168725744   -0.30757279812096   -2.03079389339236
H          -1.06624712261441   -1.75735042652982   -2.42058461666142
O          -0.44314507634996   -1.87641733692377    0.19541803099510
H          -0.96691996664736   -1.07262434796399   -0.00655732675400
H           0.46384648400281   -1.65564324364196   -0.05977246572562
H          -0.37897349694524   -1.96325401957972    1.83840244929531
O           1.07869007766970    0.34523015927283    2.11394632107351
H           0.63751835388780   -0.47720701876702    2.52875056232013
H           1.50878803597373    0.00341630783479    1.21779443869039
H           0.25232114748641    0.97177996124451    1.85249550470324
N           1.24336507496920    0.70133923344014   -1.99521607130872
H           0.68529869227847    1.46757678762560   -1.60281340043370
H           1.91976157735725    1.08838429829530   -2.63990567624069
H           1.72971265234150   -0.01953809481785   -0.88880803574326
H           0.59280752600490    0.10743592020483   -2.51497046284158
