    26
        -50.44443803  Gyration_radius:  2.50944432376 Dipole_moment: 4.857
 S           0.70026362093343    1.83196116089889    1.00822687518014
O           1.39904526721284    0.80192191398600    1.79117392561967
O           0.76839721221211    1.50726316885832   -0.41318234696636
O          -0.62851921639251    2.10115559283031    1.47375827146658
O           1.55957513874114    3.14218701746383    1.20644887930428
H           2.42699827218802    2.83291262545099    0.96776201139406
O          -1.33516547392236   -1.65508528768752    0.18652327425948
H          -2.00575086284341   -2.25919740192335    0.50585810637804
O           2.31535802790925   -2.39431633073947   -0.04202068662889
H           2.27899285481174   -3.29759011596744   -0.36003498213605
O          -1.05442253469187    1.52295450836638   -2.42373207253001
H          -0.38767579156795    1.72480418072278   -1.74264527923601
H          -0.64523080267694    0.86302716179195   -2.98840556102783
O           0.75917047116098   -0.91395667156372   -1.53074748924485
H           0.85023309495422   -0.00798913414925   -1.16720266293971
H           1.87158250851482   -1.82769358617912   -0.73148767161163
H          -0.08916845164122   -1.23545423374807   -1.19398552972761
O           0.65931950569389   -1.54323849711137    1.71364381210015
H          -0.20729286350358   -1.56952383743201    1.12007293699768
H           1.39335773191511   -1.95117525623962    1.13230974610867
H           0.95062305271055   -0.51813558869739    1.80776491373873
N          -2.37438093897445    0.61572400814480   -0.06998516142311
H          -1.83923491355427    1.22390094595184    0.55942964080552
H          -3.36001764203137    0.73378725523611    0.12377583586303
H          -2.18241449420279    0.94295178546264   -1.01973961561703
H          -1.82364279295281   -0.67119539373774    0.08642080987728
