    26
        -50.46742645  Gyration_radius:  2.40232315616 Dipole_moment: 4.780
 S          -0.18108769877653    0.74108315640826   -1.54379353108437
O           0.89952014299401   -0.17765079739069   -1.18617957538031
O          -0.77946818419630    1.27818221689075   -0.18801454602546
O           0.34394429388277    1.96088083772885   -2.15271201435426
O          -1.23197091509937    0.08422846229618   -2.28214692588224
H          -1.68682693774654   -1.30541615057277   -1.60861778737902
O          -1.99034577583122   -2.10028577551412   -1.09571544824656
H          -2.75596549830867   -2.43495024756934   -1.56515901952988
O           0.42346457153011   -1.26560102152482    2.20377417408128
H           0.68945016344724   -1.82081352279006    2.93742211960333
O           1.98377278776990    0.70617552185065    0.99563927956621
H           1.74033603732610    0.28933503335216    0.13317047657235
H           1.44895108536564    0.21239773576389    1.64026168183776
O           0.54804210893545   -2.56171809592491   -0.06939262872073
H           0.82600049567398   -1.78379196281867   -0.59413719936414
H           0.53914427653358   -1.81845124611657    1.37952686006550
H          -0.34676559461811   -2.74601747196860   -0.38878168982749
O          -1.99380124501650   -0.55099271042292    1.13153972166603
H          -1.23536415039336   -0.82869059258014    1.67666544317219
H          -1.31794994837818    0.58063412024449    0.30470993203385
H          -2.10972526140733   -1.23241014851074    0.44145486170659
N           1.25376104235412    2.99023697463836   -0.01890929537116
H           1.57654883956944    2.11268804698344    0.52146243387776
H           0.44992520501917    3.39718244853118    0.45081316531336
H           2.00440810589149    3.66525525074781   -0.12640780561432
H           0.90200205348103    2.60850992827192   -0.99647268271663
