    26
        -50.45450934  Gyration_radius:  2.45163813856 Dipole_moment: 5.291
 S           0.10795601826038    1.76178287241071    1.11551081866893
O           0.98941611860708    0.78949182638458    0.49503078135794
O          -1.33267174234272    1.22336528567775    1.10184780315005
O           0.43235571004947    2.12306804299863    2.44787667481208
O           0.06139997584485    3.00165288464477    0.19624607362904
H           0.48331328861407    2.76320778960157   -0.68478534649891
O          -0.78500768354025   -2.43198500211348    0.54876023065043
H          -1.32973976488995   -3.15711682840062    0.85737588068142
O           0.01741558107024   -0.12280773651474   -2.76700026780693
H           0.05820662464485   -0.49091893380135   -3.65034602193700
O           1.26809458092434    2.13424062619820   -1.90754331141845
H           1.92185880202293    1.66052415821074   -1.38262255669722
H           0.72449597968108    1.43865767543216   -2.32930914718924
O          -1.87153523198181   -0.34198148288937   -0.80417387038833
H          -1.55126867415021   -1.17239029879672   -0.39385910267299
H          -1.56985356140228    0.64269610452193    0.28648428148510
H          -1.30492433780695   -0.18133087782010   -1.58078388471365
O           1.33238825776742   -1.45879147592683   -0.95838007473818
H           1.38302052495713   -0.68864892053930   -0.36540932644236
H           0.70377341837107   -2.05482458117356   -0.52420080155216
H           0.58508515524636   -0.69962696572535   -2.17953341194964
N          -0.03647853675958   -0.92564235152631    2.61815087492689
H           0.63257738494838   -0.32247537891713    2.15005173231623
H          -0.50644832686448   -1.91540792150044    1.35966860280457
H           0.39430316802530   -1.25424342651752    3.47444468840610
H          -0.80773272929574   -0.32049509391733    2.87649869112041
