    26
        -50.45450931  Gyration_radius:  2.45184185242 Dipole_moment: 5.293
 S          -0.12140377523886    1.54408805504761    1.40144753027884
O           1.04560624657015    0.60146975567384    1.74075821747118
O          -0.89204253692848    0.97899387880825    0.30875732916733
O          -0.84321864170167    1.80119078024107    2.59463032638363
O           0.56179636440334    2.82515171682288    0.87566086007165
H           0.47580259448391    2.84565766236778   -0.12593569107518
O          -0.07959545740457   -2.60580353364970    0.18134613851489
H           0.11557130413322   -3.49822984944049    0.46988511486856
O           1.02958156789715    0.26072093302049   -2.55722335060169
H           1.25062545183341    0.04379171187600   -3.46361003941621
O           0.10927180483145    2.65543668134462   -1.65449803947145
H          -0.78936820393876    2.34019535624664   -1.51182654069981
H           0.59478627695124    1.88952940974819   -2.02179993086725
O          -1.15716278004552   -0.83954614477830   -1.66778003431009
H          -0.90325549830680   -1.65123962026264   -1.20331450536609
H          -1.25360958749884   -0.17773962394209   -0.96069114941137
H           0.16053267348498   -0.18841214023861   -2.34898174209741
O           1.90179955563004   -0.78419029267291   -0.18817132745223
H           1.43838348268161    0.09079614106048    0.93885505004209
H           1.26365532692686   -1.52475151260414   -0.11912493265109
H           1.73530508321607   -0.35605590638273   -1.04786181614526
N          -1.19599067615755   -1.23750509698461    2.17951355560830
H          -0.52129401419696   -2.14387703823003    0.95171996751416
H          -1.98724928063981   -1.53149141649900    2.74015586000509
H          -0.46598817501735   -0.93594109916593    2.81505400691969
H          -1.47253910597182   -0.40223880740697    1.67303515272026
