    26
        -50.44443799  Gyration_radius:  2.50948975925 Dipole_moment: 4.861
 S          -1.22112693971704    1.83235021826182   -0.12205796601946
O          -0.90432766854107    0.89077498741384   -1.19144870320350
O          -1.88984689696251    1.12891937086964    0.98257001838709
O          -0.10212133958308    2.62384066764032    0.29771683846151
O          -2.31807658356154    2.80991680105987   -0.70135388314625
H          -3.03978448838390    2.20911181529763   -0.85370119640257
O           1.52485121308320   -0.97037388083913    1.13678667193574
H           2.19911210678852   -1.16105452095722    1.78919555205405
O          -1.78943528811456   -2.66619203229575    0.88463250087812
H          -1.52376682548844   -3.56933564512804    1.06389208518260
O           1.29819388062369    0.47040177603154   -2.72038258237431
H           1.15074243098868   -0.45584809099806   -2.92569108960743
H           0.46870594006279    0.77622405810900   -2.31103425413810
O          -0.75500556321393   -0.70646966076856    2.16436638977897
H          -1.25346832746514   -1.51167563398888    1.78154619956004
H           0.21547551285057   -0.77017124530291    1.76697626799115
H          -1.23427243011513    0.13146570471460    1.70324581740315
O          -0.21621848951106   -1.67432401763341   -0.95114443968674
H           0.57518411114436   -1.57078297275048   -0.40399475435024
H          -1.30515879370239   -2.38109227746013    0.06146495856455
H          -0.54487166360744   -0.76240410360088   -1.09826373166910
N           2.18222883321369    1.11773476458281   -0.09233559450437
H           1.84362660982488   -0.05091595062814    0.61826611643093
H           3.06118039729616    1.56648947990103    0.12911052624249
H           2.15859929552955    0.91305797469638   -1.09407995317905
H           1.41958095656150    1.78035241378679    0.08571822540861
