    26
        -50.44443804  Gyration_radius:  2.50942264384 Dipole_moment: 4.860
 S          -0.73090842135313   -1.72483164499983    1.16363126908596
O          -1.99575631140431   -1.19365574011119    0.63425654143158
O           0.28898818835078   -1.71258042143091    0.11954399668010
O          -0.31301980127785   -1.09830644750807    2.38333116237207
O          -1.02988332071813   -3.24407782233970    1.47505617194103
H          -1.38838083866044   -3.53642575139763    0.64375304425956
O          -1.82303229053768    0.55762730348775   -2.73054138427980
H          -1.77466605921468    1.25416940427028   -3.38692932546858
O           0.16269216861420    2.12905833835395    0.01024166375682
H           0.12000381747201    3.04921305069132    0.27121491854193
O           2.89549013962208   -0.95835293086653    0.06239783834809
H           2.03742929589908   -1.40816187255649    0.16523655802096
H           2.96098218506881   -0.75259244332538   -0.87315286337709
O          -2.11715742267481    1.10019479238752   -0.24713552512968
H          -1.17696735146468    1.53957104582201   -0.08254318651130
H          -2.15210655153064    0.91290414867641   -1.25065120123138
H          -2.09494035631711    0.12511793694106    0.19228150591196
O           0.58602496045836    0.06478265781239   -1.84611387709207
H          -0.88750856419518    0.26310973265690   -2.55301262560176
H           0.69712485622059    0.86549913597305   -1.31421910216873
H           0.47123633587730   -0.65921361436160   -1.19504124603447
N           1.50111275953646    0.88118144645724    1.72893991114761
H           2.23939459175912    0.36889240321127    1.24061735439963
H           1.91139855799655    1.38950079633876    2.50111076285131
H           0.75447226721671    1.61227706766857    0.78426887040915
H           0.85797719525720    0.17509942815098    2.10345875773632
