    26
        -50.46742650  Gyration_radius:  2.40223436646 Dipole_moment: 4.770
 S          -1.32732163438108   -0.85981752261987    0.67936490914414
O          -1.17020202840847   -0.57113100438170   -0.74599982902283
O          -0.39342249596669    0.15173345619223    1.44690158620899
O          -2.65428652448527   -0.47282422480200    1.15235892693889
O          -0.92026960226835   -2.20350659600250    1.01078413625569
H           0.50338513748674   -2.59747978975328    0.37114988266249
O           1.42528337592429   -2.74706091369735    0.03235172392380
H           1.68774603316439   -3.60664116495624    0.36510827965533
O           1.91807601734346    1.19794254180219   -1.23209079704548
H           2.56433236933729    1.58400459371337   -1.82415979576738
O          -0.74984190512311    1.97546805180228   -0.98293290884375
H          -0.97705814651249    1.01760432510543   -1.07055116823010
H           0.22189304168984    1.97131166594150   -0.94923542493375
O           1.02263082392026   -1.08471794256761   -2.15352744896534
H           1.37585931446447   -1.81145537715760   -1.62072935889714
H           0.11472353776472   -0.96391150303534   -1.80868279233816
H           1.60044055793726    0.36004918916087   -1.67441060061995
O           2.09219315552989   -0.31811724595966    1.04257579822405
H           0.58667188183851   -0.06916667592485    1.34781599323493
H           2.05417833023735   -1.22312126767495    0.67751772277501
H           2.20523336773542    0.28594833887362    0.28632828509945
N          -2.25350427679931    2.03309607354163    1.14199945106695
H          -1.73396754183813    2.22853519038660    1.99305703691385
H          -3.07609843767200    2.62283741493963    1.06325715750282
H          -1.59778818447264    2.14169518037110    0.29073619889572
H          -2.51888616644644    0.95872520670444    1.16101305616100
