    26
        -50.46742659  Gyration_radius:  2.40210295154 Dipole_moment: 4.777
 S           1.06906573727427    0.51288994686725   -1.24755339971875
O           1.05582508303630    1.06154225403275    0.10840925993922
O          -0.32392685991863   -0.19430009412681   -1.45808707361082
O           1.02802117160748    1.57727266348299   -2.24730622310430
O           2.11344469292561   -0.46566671709149   -1.42848736506600
H           2.16617459836130   -1.54590453829100   -0.23594575511906
O          -1.45068497063156   -0.65704799095454    2.02196044334316
H          -1.88656150756565   -0.81450723509394    2.86009286997519
O           2.08632473849084   -2.23642258296498    0.47389245730114
H           2.72688350162456   -2.91343237073575    0.25048704729870
O          -1.38156414182720    1.76507612854231    0.63931034320575
H          -0.40532577191220    1.62942899813706    0.56586546877674
H          -1.69099521306309    0.93804308888004    1.04642900016705
O           1.13826308727667   -0.39853469736006    2.32513078862698
H           1.23949477890254    0.26692493257785    1.61460874526924
H          -0.48188008329755   -0.52990956641214    2.23105366330014
H           1.58666423499293   -1.18056442138830    1.97281051367712
O          -0.58490812709998   -2.28639993659303   -0.00256947817255
H          -0.40622256892168   -1.05692471933262   -0.94018749740524
H           0.34179195141181   -2.44793023646001    0.25989314231338
H          -1.01924287846875   -1.84992704963082    0.75267187099295
N          -1.41462016368084    2.18858540113364   -1.92930376519685
H          -1.68516128138764    3.12866791872816   -2.20064715269510
H          -0.34137281832316    1.99882871683638   -2.12107061330568
H          -1.53992632371148    2.02418516757061   -0.86913013034499
H          -1.93956087609226    1.48602694964784   -2.44232717044076
