    26
        -50.46742653  Gyration_radius:  2.40221024329 Dipole_moment: 4.772
 S          -0.91724169707583    1.42787606786577   -0.28797575026065
O           0.64991924977903    1.35301122505076   -0.13685209510817
O          -1.45192766803980    0.20798037516693    0.31673081144372
O          -1.24787903493072    2.60278372264220    0.51488049308391
O          -1.23967950936858    1.52670734601399   -1.69057536521600
H          -0.94671558328509    0.16239612989210   -2.49286170789755
O          -0.65551692272909   -0.67076760427816   -2.94910234132241
H          -0.79262276407822   -0.51559619637316   -3.88483794348206
O           1.16109096740330   -2.25288621568117    0.45699639956633
H           1.44344721744973   -3.14698321569401    0.65224107283474
O           0.10539132233954   -0.43136256659622    2.28753301145881
H           0.71601327480853   -1.01983193007343    1.81182519847069
H          -0.62102498917227   -0.28342245906345    1.63390653500203
O          -1.18313139048037   -2.22594836937356   -0.71143472822825
H          -1.47844290343934   -1.39471625729644   -0.28756701662511
H          -1.07944878814122   -1.98438301708808   -1.64292770195901
H           0.24947031165368   -2.33014116627350    0.05503397651270
O           1.68060120896705   -0.49601825578364   -1.57948847276173
H           1.06985945063047    0.67305147151043   -0.75371307926071
H           1.66883799911029   -1.19578680739032   -0.90144858836580
H           0.94497579648438   -0.68553442435914   -2.19327098371399
N           0.40111927846313    2.15348395657951    2.39091239143912
H          -0.35498614285520    2.41658862800631    1.62667580730475
H           1.30230736615310    2.46604884224206    2.04080007208520
H           0.18629597726374    2.56909445236596    3.29189402274980
H           0.38928799308655    1.07435624798804    2.43262598224518
