    26
        -50.46742653  Gyration_radius:  2.40229649384 Dipole_moment: 4.778
 S           0.57152594804449    1.47945968728410   -0.66989609143868
O           1.35552928111303    0.11213891620106   -0.65323890477552
O          -0.45982198948568    1.37983342344544    0.36257562260282
O           1.60945774981932    2.43395695973606   -0.28777737980604
O           0.00900748837027    1.67096447475812   -1.98440616277593
H          -1.20000962554656    0.65453505084337   -2.29556722307404
O          -1.04446159350947   -2.08899147727623    1.08610779281747
H          -1.54361913006534   -2.76363561709149    1.54757602424120
O          -1.86930392843590   -0.05978864074435   -2.46530941844167
H          -2.13255731859127    0.04365753850948   -3.38100363614931
O           0.49144675800741   -0.08693202592695    2.27590346678699
H           0.17097951894970   -0.95392720454571    1.97418046712519
H           0.01915025092459    0.54741514742260    1.68310652383886
O          -2.60605760325931   -0.17742257953195    0.20861131779366
H          -2.68073485987922   -0.23443082368806   -0.75463851076433
H          -1.70328891815883   -1.38490612059045    0.82411556035479
H          -1.95122606324691    0.53618231249298    0.34887966054001
O          -0.08425944607412   -1.84372293862770   -1.46791293200203
H          -0.41305176447596   -2.12131174623351   -0.59363309719096
H          -0.81556871915991   -1.36697846848847   -1.90584464285045
H           0.81747884117334   -0.65070380360450   -1.03768391894536
N           2.72580225397944    0.97309042236876    1.46166095916070
H           3.25443863507907    1.45391149405685    2.18277203224419
H           3.30896768729722    0.32384824407030    0.94127855716559
H           1.87821791712299    0.44288479403968    1.87040328556580
H           2.29195866000931    1.68087300112125    0.72974064797567
