    26
        -50.46742651  Gyration_radius:  2.40224533047 Dipole_moment: 4.780
 S           1.13773561065574   -0.60518446404064   -1.14212171838881
O           0.02434077044161    0.28410351906760   -1.47269728063521
O           0.79007984020018   -1.26018752292062    0.24883474545865
O           1.16707616109808   -1.76526021192260   -2.02956342328801
O           2.38503003298522    0.10842191248236   -1.01541628294104
H           2.25269213648238    1.43167704315949   -0.10847727729691
O           2.13151800060456    2.17727697123020    0.53685669984792
H           3.00490337828384    2.54796820925795    0.67211634482759
O          -1.76385154493310    1.07209186703421    1.54081028797588
H          -2.45514203863278    1.56339756080946    1.98573830043073
O          -2.13455733094561   -0.78036097914290   -0.51157863246615
H          -2.14132754117856   -0.34658443977970    0.35863070818589
H          -1.42963174393355   -0.29138284312093   -1.00231006648042
O          -0.51334313298339    2.56047075741052   -0.21493532210981
H          -1.36941992148514    1.69478585238015    0.86608630403250
H           0.37540511983922    2.76716714293085    0.10764169531265
H          -0.36563808428876    1.83214696530286   -0.85179865784081
O           0.82780769828497    0.44098709711778    2.16390336988261
H           0.86983474277479   -0.61085946742010    1.01773216106338
H           1.31331971876633    1.17885750220530    1.74705143887067
H          -0.11781032066575    0.67441958421972    2.13470671900064
N          -0.81812354633007   -2.97137545843089   -1.00732362375935
H          -1.45059199723917   -2.14230357321686   -0.72621220471086
H          -0.46095364403463   -3.42073301372899   -0.16893309276163
H          -1.30426265951378   -3.63141094741698   -1.60621119813686
H           0.04491030574677   -2.50812907346862   -1.52253001407503
