    26
        -50.44784093  Gyration_radius:  2.45170636579 Dipole_moment: 2.559
 S          -1.76592390633410    0.64050625586473   -0.86502599218553
O          -2.69662592189775   -0.43873566683849   -0.72383185292632
O          -1.00039216148708    0.96587167584829    0.32617235379954
O          -0.86891904005533    0.47754885535385   -2.01815075040357
O          -2.61436854037363    1.95307661541518   -1.16704815385900
H          -3.33979092567159    1.63974819793147   -1.69862848860280
O           2.03660096079666   -1.02836456670076   -0.47278972625676
H           2.60097746854945   -1.64348616564525   -0.94230775643320
O           1.00698034975733    2.66453401275445    0.36169691296446
H           0.09146014690269    2.31285966385905    0.39308815406528
O          -0.56989719736631   -1.84759624285009    2.59216997963758
H          -1.40980740395850   -1.39952906794350    2.70933942111712
H           0.11186059763394   -1.15192114819104    2.61469399804909
O           1.10550729615709    0.23709332212022    1.88301483395446
H           0.28680753307408    0.44073936148083    1.39645142517515
H           1.65401476830038   -0.26578596458145    1.26768010223766
H           1.43706457903866    2.27978244842728    1.13814895911283
O           1.46650279339074    1.14910960987453   -1.62588807421623
H           0.45351594025072    0.90791742366792   -1.87674420900000
H           1.38938634604023    1.85085574487231   -0.87005592260714
H           1.79730179409478    0.27354236324504   -1.18379449911825
N          -0.30722418925444   -2.03889047038300   -0.26362161604749
H          -1.03769808211807   -1.39901261472051   -0.56648992109394
H          -0.46683968272906   -2.92468282854092   -0.72753639494761
H           1.08324013336298   -1.46674239222327   -0.42172708796342
H          -0.44373365609784   -2.18843841210093    0.74118431555168
