    26
        -50.45845125  Gyration_radius:  2.35299806382 Dipole_moment: 5.890
 S          -0.28052979476842   -0.46846093151809   -0.62841337826771
O          -0.40593725528244    0.89665162662870   -0.07762295180611
O           0.63372845346341   -1.27491977289478    0.18888549058420
O          -1.63876298576234   -1.07139778987566   -0.65804424389343
O           0.21976500531607   -0.34936682049107   -2.02333597078657
O           2.03749048372630    1.75257453155585    0.45215222378332
H           1.09542248355006    1.67028609344999    0.17954030166729
H           2.52837599203497    1.25930084586477   -0.24318763527655
O          -0.78616461051951    0.65400318688290    2.52648578218293
H          -0.81320176575584    0.92785334987024    1.58160075000012
H          -1.25265650766983   -0.21214992069219    2.53467844891988
O          -1.67812007163957   -1.78543599761009    1.91169611813273
H          -0.94002876407263   -2.39845053694622    1.94721633113927
H          -1.78906971251008   -1.58252879796272    0.96105705739004
O           2.78835233595418   -0.04703041003344   -1.37069199267473
H           2.96802857421636   -0.87787168448056   -0.92448511776743
H           1.88899920335716   -0.15150558364526   -1.74146971758543
O           1.58369210632249   -0.02732731280450    2.14163687137343
H           0.64094816942809    0.29759242508617    2.50789518960454
H           1.27478678910964   -0.66508394350807    1.38369287701048
H           1.92466793855902    0.79699277857687    1.56469681342734
N          -2.05096337775103    0.57252875898584   -2.49040043578992
H          -0.98311866648068    0.32061105880351   -2.56982704864500
H          -2.59467041353947    0.39174478710848   -3.32744444941631
H          -2.20263886090299   -0.15052354877628   -1.67704446206436
H          -2.16839474838003    1.52191360840964   -2.14926683123684
