    26
        -50.46846771  Gyration_radius:  2.39947329666 Dipole_moment: 5.638
 S          -0.14158635434115    1.68277142156600   -0.67894331522178
O           0.82754697869032    1.04075993683754    0.20191991715408
O          -1.34833977752903    0.82605372427768   -0.77811340164645
O          -0.46549749052620    3.01844677008740   -0.25657743450143
O           0.47947954474633    1.73187392062686   -2.10750114018824
H           0.81152278190091    0.82009431725072   -2.29021639504128
O          -0.01907704611718   -2.16966320083231    1.23118650683014
H           0.23544757939414   -2.88155513223035    1.81947820185879
O           1.17813201338763   -0.79169277291538   -2.59173897335574
H           1.14846355265755   -0.91747834172390   -3.54176283182259
O          -0.22074132945674    2.40829558968302    2.30947763098438
H          -0.38850825874102    2.81043583002748    1.42547452731712
H           0.72361615085092    2.22481711459125    2.29743944530394
O          -0.97732696161052   -1.70475430413058   -1.43521179543830
H          -1.26091880846162   -0.77933943726100   -1.26816294694058
H           0.36357669544157   -1.23519584687521   -2.22204088448497
H          -0.76408393626402   -2.06990884864462   -0.56550860475050
O           2.10376099138095   -1.22419166183470    0.06738381594230
H           1.76978839765889   -0.30329478378079    0.16479620402108
H           0.83142962402627   -1.84675977653936    0.80626290144046
H           2.12769501780888   -1.35854408643029   -0.88725772521555
N          -1.41890552249128    0.12559184622215    1.69342257854588
H          -0.83422686417263   -0.73723469944196    1.70146159509181
H          -2.31517626796049   -0.02732844317674    2.14388911343219
H          -0.91114132503721    0.96518772032914    2.10230982662732
H          -1.53492937523666    0.39261312431015    0.65853318406347
