    26
        -50.44706768  Gyration_radius:  2.48421676179 Dipole_moment: 6.051
 S           0.46129157361493    1.22425467466694    1.51519903349025
O           0.11990435565342   -0.18211662417580    1.81830943154457
O           0.82076855883389    1.35788458701015    0.11320218067441
O          -0.52974642660742    2.14104291634873    1.98457097373873
O           1.79725534268713    1.51014608023254    2.32192349917629
H           2.49022784516619    1.15345671665221    1.77303655387464
O          -1.02144679490491   -1.15200611060892   -1.77218738907182
H          -1.74991309663545   -1.74221281413434   -1.96985347892956
O           2.76918934686393   -1.42915560588335   -0.87016150500108
H           3.18981752061664   -2.08099428433676   -1.43322449571353
O          -2.60181655862682    0.42085303193742    2.17268574053214
H          -2.02352096842218    1.19600385861935    2.28169854932595
H          -2.04542635241447   -0.31976328602453    2.42975590335479
O           1.39655630980657    0.28376624681332   -2.26509335181010
H           0.55611197187099   -0.16066715706162   -2.43743627157803
H           1.22344308133346    0.85921812891538   -1.49679142524481
H           2.39456998874761   -0.72398696722949   -1.47268518200759
O           0.47016938258582   -1.92298226871741    0.13184961987450
H           1.42826530017340   -1.79840219458323   -0.19932043651243
H           0.32000024707605   -1.16555704700978    0.89847983491284
H          -0.14944403444901   -1.65055903312552   -0.65225140738135
N          -1.92263244333849    0.89949211260449   -0.55440157081695
H          -1.44138561672145   -0.30085093896634   -1.31995412748238
H          -2.50102451775348    1.57908986815967   -1.03201342718736
H          -2.39520630190947    0.64543834110468    0.31789007665365
H          -1.05600771350048    1.35860775866916   -0.28322732847893
