    26
        -50.46846775  Gyration_radius:  2.39940700947 Dipole_moment: 5.640
 S          -1.20530718482475    1.22764443719645    0.59454991505275
O           0.21748948565245    1.64691187986212    0.59019569522846
O          -1.27960102816608   -0.20945444118694    0.35688408528018
O          -1.87532980283294    1.61847349938346    1.80520002659530
O          -1.87617776359391    1.94154658455598   -0.61760422340927
H          -1.48004451436338    1.53443719013423   -1.42526114863479
O           1.74536529241567   -1.72848510777571   -0.43585076174831
H           2.16801374163700   -2.57621182283262   -0.57851857871917
O          -0.62465658293483    0.92357062364996   -2.73633917371680
H          -0.65535468522797    1.58532456056163   -3.42944048465085
O          -1.22753675675742   -0.63079323068916    3.04549937745255
H          -1.53078089083480    0.26534197048036    2.76927398686612
H          -1.74379362964888   -1.22374273823153    2.49096776272741
O           1.67292052925927    0.93809201368143   -1.49632209313800
H           0.30401295460610    0.94043114703399   -2.37000896921217
H           1.23081748663316    1.33404168850846   -0.71369005263455
H           1.91669748457401    0.04140504164946   -1.22839511863654
O          -0.55467809265498   -1.70674065123714   -1.64542393891783
H           0.86975604110379   -1.77181465914151   -0.92554122537310
H          -0.96955109268735   -1.23324918116256   -0.88862963048130
H          -0.61636464687807   -1.07501885336633   -2.37144107292284
N           1.13170437554892   -0.39086950499182    1.86112411902046
H           0.24524752740873   -0.64992310000686    2.38743585101569
H           1.92075641524212   -0.27525366202992    2.48853459139348
H           1.34927602295915   -1.05960774567291    1.09184725663236
H           0.86711930435806    0.53394407163181    1.38095381493126
