    26
        -50.44784106  Gyration_radius:  2.45226804554 Dipole_moment: 2.555
 S          -0.67438734347789   -0.27132196903635    1.93729403753227
O           0.59288782046673   -0.39974105973361    1.23847304140210
O          -0.96907577725146    1.03518758237801    2.44428873266709
O          -1.76359414454251   -0.82998814696782    1.12339797942933
O          -0.53992935831091   -1.24060096155331    3.19270431751413
H          -1.18536343843548   -0.90783774798026    3.80885514318386
O           1.32464977449582   -2.54637323104808   -0.09223274984743
H           1.18348865199282   -1.92056470790490    0.65037602168927
O          -0.69751175880825    0.05413864829564   -2.22120303241921
H          -1.32173128850533    0.24177405066348   -2.92296943998505
O           1.74482069106102    2.71185272095707   -0.26908324288125
H           2.04434961451835    1.88031519409842   -0.67936241753526
H           1.97184777039520    2.64557394184431    0.66040305363630
O          -1.04215086846676   -2.06283709085570   -0.88113724882607
H          -0.09311478907476   -2.38944632337651   -0.63149518809458
H          -1.41293904605765   -1.59963830787124    0.01081707518594
H          -0.91893154006144   -1.25310630113451   -1.51396832583531
O           1.90059615588565    0.07716542537206   -1.09650415962190
H           1.47581668754631    0.00305791379217   -0.22327689102257
H           1.93803037744370   -2.08412732148649   -0.68035024347536
H           1.17646926493199    0.11892405688818   -1.73395708943892
N          -0.97799619242453    1.79716007910534   -0.36615878339195
H          -0.09855840451979    2.32369220364410   -0.36167802415485
H          -1.07287715085904    1.37682870952636    0.55530676868058
H          -1.73163239719553    2.46459533229380   -0.47527908913312
H          -0.85316330075116    0.77531730009403   -1.47326025526534
