    26
        -50.44783950  Gyration_radius:  2.4484281435 Dipole_moment: 2.618
 S          -1.10417631362468   -1.07441861504425    1.37165229450521
O          -2.26218085650210   -1.54997733874103    0.67624325203509
O           0.15836573359558   -1.24573206652630    0.67320225059032
O          -1.24391081594232    0.31239591874709    1.83817499922353
O          -0.95573626814812   -1.95484125881438    2.68949726598938
H          -1.85488786809626   -2.12757943108753    2.95151303889678
O           2.43721645835951   -0.22272732123761    1.49744228225954
H           1.68323616702793   -0.84291454046796    1.39875287841831
O           0.35812043962384    2.15235493646735   -0.83758960774264
H           0.08186247862310    3.03629524646117   -1.08193260545243
O          -0.19249357271651   -1.36197339337659   -2.90930963175779
H           0.66601479579946   -1.05014118111708   -2.57130318991071
H          -0.36948589549605   -2.18988212878405   -2.45853190401857
O           0.77859496916565    1.69840822975018    1.61474716985348
H           0.66072032474038    1.97086136298996    0.62297382648387
H          -0.10793166210038    1.12810373589860    1.80115968063688
H           1.54620075028412    1.00527983484030    1.64186614575733
O           1.76654167992973   -0.26427417544535   -1.28619712390959
H           1.47580361105776    0.65361022270172   -1.35807811175606
H           2.85016259612733   -0.20847149435595    0.62259739443223
H           1.15205111283592   -0.68477938974707   -0.65854538701028
N          -1.57871990413536    0.52786904105742   -1.24915089082071
H          -0.46330078218258    1.51924302506167   -1.00394001685599
H          -1.24918530498816   -0.10136174674001   -1.98825237869990
H          -1.77693553871028   -0.05305977474565   -0.43806769771603
H          -2.45594629456257    0.92771229225136   -1.55892393342153
