    26
        -50.44784099  Gyration_radius:  2.45208789877 Dipole_moment: 2.557
 S           0.61119946352641    1.97188743735059    0.13449268141888
O           1.25038657031528    0.66809562716983    0.18361239869511
O           0.45122030950801    2.53096720188587   -1.17420692255950
O          -0.63854169324160    1.95593344366379    0.90829711464511
O           1.59653688071326    2.93161859281957    0.93558286296508
H           1.37691869028096    3.80219368839071    0.61807466431945
O           1.42923226037320   -0.79774566125728    2.35944110903123
H           1.63838301447902   -0.12422204110501    1.67711250559438
O          -1.84133839002570   -1.39907133387426    0.27838278836208
H          -2.77554960045277   -1.60805819839254    0.24779182877705
O           0.80458636403432   -1.28677390394234   -2.85743006425715
H           1.52949193105987   -0.66201749823055   -2.92157658853889
H           0.94622188889210   -1.77951321490383   -2.02883038007262
O           0.88610518494380   -2.00039268941242   -0.18596855039697
H           1.05665739032733   -1.04196285559629   -0.15839677356319
H           1.50924208559460   -1.64184812951298    1.89371776325145
H          -0.06742378796316   -2.09722751177457   -0.06836386956237
O          -1.00323561414479   -0.06885279596743    2.25944041368971
H          -1.39944929521005   -0.67046748772926    1.51622790075821
H          -0.04428435643958   -0.41272561914480    2.43778992051478
H          -0.86681870376873    0.86289670584712    1.74856520914887
N          -1.28984816501605    0.23780818013507   -1.61241713324154
H          -1.65620661131430   -0.71481115956153   -0.49694754575300
H          -0.66646187159270   -0.28089757218420   -2.23930501737503
H          -2.06688834246122    0.57532800743878   -2.16707352169638
H          -0.77013564239469    1.04985881782890   -1.28801279411240
