    26
        -50.44783952  Gyration_radius:  2.44843435825 Dipole_moment: 2.619
 S           0.58248113190054   -1.41111726939709   -1.38725861170368
O          -0.66324147121627   -1.00813000078607   -0.75720974755801
O           0.93301509199813   -0.69160093914291   -2.57472268753086
O           1.66685286364992   -1.44556689905774   -0.39557364875070
O           0.34456233720269   -2.92668524450159   -1.81206207210544
H           0.98185196248606   -3.07287182294472   -2.50441864908631
O          -1.46649397909265   -1.88558544729304    1.58885128717412
H          -1.31758814291591   -1.83800878916840    0.62013611404701
O           0.78154849820376    1.32906107324287    1.75658586164332
H           1.44441349258569    1.85117375074970    2.20977158192865
O          -1.57434929898711    2.40813534059512   -1.44156733388112
H          -1.91325159405198    2.03091054184873   -0.61008910549912
H          -1.80629159985424    1.78213262482922   -2.13023200243912
O          -1.85310588231423    0.84886714394458    0.83179235629413
H          -2.02974197774718   -1.12278694939750    1.78112514275057
H          -1.10646058819661    1.21989572031296    1.31865188494434
H          -1.46313372006230    0.24123298231980    0.17827561017519
O           0.95023170497212   -1.18741643371841    1.94564937234958
H           1.31403871983130   -1.37378685070940    0.95624423692028
H           0.89744497606004   -0.15383991931947    1.96982710135658
H          -0.02476164855404   -1.53336922706202    1.93534891072323
N           1.09639685298517    1.59155620253937   -0.77161781740323
H           0.95128047173472    1.44806931532628    0.72696197627069
H           1.88806978303893    2.14162682891287   -1.08151254729885
H           1.13919793387436    0.69621601409369   -1.25240810635279
H           0.24703410247230    2.06188827376819   -1.10054911695775
