    26
        -50.44783956  Gyration_radius:  2.44860566069 Dipole_moment: 2.614
 S          -1.57504903662611    1.04795168440374    0.82260323966754
O          -1.05199677163586    1.73337030590037    1.96597343828708
O          -0.76872433531359    1.13777382690327   -0.38282230209851
O          -1.91994847737833   -0.35354907269459    1.10100900677617
O          -2.94791956172193    1.75721708168952    0.44021902520768
H          -3.31579751880888    2.01166731335822    1.28101262152661
O           1.07056253759275   -2.07750767220390    0.00732072268416
H           1.36797115474765   -2.88958495899067    0.41897472742090
O          -1.25001648017670   -0.23908903644421   -2.57185032103645
H          -1.28980283513832    0.47557258920992   -1.90063720658212
O           2.73256632925818    1.67811424663972    0.27561145358738
H           2.51568493466248    1.22973648244067   -0.56129848906777
H           2.19121534343777    2.46950269560450    0.30000540268802
O          -1.35658803552853   -1.94446732671533   -0.69149554931695
H          -1.68749779608937   -1.29335674387842    0.09109979489599
H          -1.36932729886410   -1.35741203225261   -1.54330788508940
H          -0.36127304743986   -2.09247023233309   -0.44860349855544
O           1.43208831555689    0.18337586210657   -1.66120232622671
H           1.55985381772611   -0.67897273028627   -1.24623592116773
H          -0.33955759616495   -0.20952869072883   -2.89782668881912
H           0.70667664924849    0.60605911316352   -1.16769779550969
N           1.12166849316850   -0.19392610922578    1.74215234972094
H           1.82872455749765    0.46554689967523    1.40167566457298
H           1.08938915137635   -1.33476894718798    0.74958713340246
H           1.37389057878873   -0.44820941926862    2.68931012230129
H           0.24320691780500    0.31695487113988    1.78642328072233
