    26
        -50.44706762  Gyration_radius:  2.48439719769 Dipole_moment: 6.051
 S          -1.36774491173094   -1.44418429522135   -0.22889613119688
O          -1.38335872119649   -0.64132670627109    1.01264848371611
O          -0.61865583640038   -0.74833377114099   -1.26202265446377
O          -0.98021247653206   -2.80051897702873    0.00167813495268
O          -2.87164027550573   -1.45622517906308   -0.73420372759742
H          -2.97760946000650   -0.62750071201199   -1.19319550230329
O          -1.36334701234433    2.71165916004977   -1.12268172050637
H          -1.27513308667781    3.65798678393373   -1.24730388661750
O           1.94623535460734    1.26245497210287    0.36249679759138
H           2.58154776153889    1.49368725979237    1.04144418661857
O           0.29069796093624   -2.45451322553031    2.35787443127331
H          -0.17077402883758   -2.85342908414699    1.59953015064799
H          -0.30380166459615   -1.75729094174869    2.64867123984265
O          -0.47774933945640    1.63405067642606    1.01915845427902
H           0.52289941062625    1.51386006476915    0.78030497602073
H          -0.91085794579076    2.10630803874550    0.22374519839018
H          -0.89671148601051    0.62989855147588    1.03258350060640
O           0.64006605637705    1.42671736649474   -2.17093015305973
H           1.34019625541893    1.48472246837048   -1.50757970616526
H           0.23056950018814    0.55294948852909   -2.02847907458417
H          -0.65200680504524    2.27862397918356   -1.67686142753198
N           1.76862497827060   -1.27776509735398    0.22262041216439
H           1.47194036635957   -1.68668196944211    1.11342923388068
H           2.53366222790518   -1.83662989758832   -0.13364557790719
H           0.98055499656674   -1.38138678786717   -0.41266059816761
H           1.94260816133178    0.21286785453803    0.30227496011553
