    26
        -50.44784094  Gyration_radius:  2.45180739049 Dipole_moment: 2.559
 S          -0.69278269949353    1.41882358087446    1.33613396269870
O          -1.56893098839483    0.72977737408812    2.23522140451052
O           0.57279066401189    0.75796863774464    1.06689889203850
O          -1.34714105460873    1.79882738109608    0.07587392863320
O          -0.28776189419140    2.78972686246708    2.03642235260370
H          -1.07312319019283    3.04622261671612    2.51013869698338
O           2.28793625754556    1.56064868711332   -0.75788059096520
H           1.81592224294982    1.48457700331680    0.09904239719080
O          -0.41745679073726   -0.95175767547028   -2.08502116593309
H          -0.98572749964754   -1.25728387826510   -2.79290913874791
O           0.43595735163077   -2.85886023787096    1.44839634461508
H           1.10358111000712   -2.50234705681308    0.83474797534387
H           0.57030890673743   -2.40168160545318    2.28077839914259
O           1.78878941285775   -1.23018985533135   -0.33266305587699
H           2.70246461589355    0.69508589417792   -0.87959942286447
H           1.34696064478511   -0.59037770716885    0.25373995895326
H           1.18734509099714   -1.35688518728252   -1.07738461891559
O           0.03878350194772    1.53158331417446   -1.94068268832145
H           1.00429252075990    1.61509694278041   -1.57959180614109
H          -0.13049394950233    0.52304232770542   -2.10114317404177
H          -0.58599271596281    1.73482937652670   -1.09463101526103
N          -1.60847916994523   -1.30756859853163    0.15404478722855
H          -1.04391341749886   -2.00670692602232    0.64710903729022
H          -1.61077002626997   -0.47123180534884    0.73308577611023
H          -0.94367868518971   -1.09632306875513   -1.18734031268884
H          -2.55888022847988   -1.65499640646404    0.11721305642191
