    26
        -50.46846763  Gyration_radius:  2.39942763818 Dipole_moment: 5.642
 S          -1.60525510593306   -0.00864416733056   -0.85758118283454
O          -0.41649393448572   -0.84829695536079   -0.95366179831930
O          -1.26998414032426    1.22136042376309   -0.09951621066915
O          -2.16902805673698    0.29260659499333   -2.14555381866139
O          -2.65788238864413   -0.77724259709279   -0.00297227165395
H          -2.17926937357710   -1.08545798414475    0.80382212280603
O          -1.34184049606140   -1.40676499729728    2.22495015790999
H          -1.98964150295372   -1.47200285095537    2.92876353478739
O           2.31762825164331    0.25102797776579    0.88776784165550
H           3.24735309034310    0.09502860632504    1.05767883045242
O           0.20413355274991    0.34865854259027   -3.31975250219833
H           0.41734948918705   -0.58221355663944   -3.20414840478933
H          -0.74494181487002    0.40224723026293   -3.05902846571209
O          -0.12011980228332    0.90026950932375    2.25609584060409
H           0.79977970370164    0.79729710287424    1.97591917554197
H          -0.61328601056077    1.15630605979348    1.44615716685999
H          -0.86892304235851   -0.53715275353362    2.35544422998885
O           1.06515787884477   -2.02570375695205    0.83411542382944
H           0.42475834008315   -2.14343804975840    1.54547181137270
H           0.51625070731137   -1.72675462122205    0.07372491417239
H           1.88316401022911   -0.65416789148569    0.88279372402049
N           1.05558254771457    1.58075658762585   -1.13287330852221
H           0.88884660791383    1.07936739086454   -2.05526926248355
H           1.67540062174702    1.04163888543387   -0.49153101214843
H           1.39834841791816    2.52511932595288   -1.27554696097599
H           0.08291242940175    1.57615594420388   -0.67526958503366
