    26
        -50.47126445  Gyration_radius:  2.39782935428 Dipole_moment: 2.931
 S           1.33976992250274    0.61219793375596    0.04213126228358
O           0.16103222655966    1.57076969461095   -0.40574719295411
O           2.15725897551352    1.32031279646074    0.99074303038863
O           0.67894230253712   -0.55778774280526    0.64118446059970
O           1.99781442087632    0.25786356167647   -1.20337224990670
O          -1.85573126679925    0.34179260278227   -1.92495959589449
H          -2.11404792418313   -0.01213919478641   -1.03813544853993
H          -1.35717312165380    1.14267019938987   -1.71896243555361
O           0.64829758166908   -2.91474272922002   -0.55273425066375
H           1.50543209538867   -3.32310036685507   -0.42279858922675
H           0.64558137018598   -2.10449095871428    0.00623307292390
O           0.79683689261837    0.71109697687726    3.13272527583151
H           1.46162581312472    0.98670980149718    2.45965661801980
H           0.64496114063338   -0.22054008770776    2.94882368094637
O          -1.99736588190912   -0.37980446273542    0.61837518627222
H          -2.14194250303869    0.40544972815554    1.15707628197577
H          -1.03840894182209   -0.55969636905680    0.68212914879025
O          -1.06017542612876    2.02252422883230    1.86739425901608
H          -1.03116459257350    2.93986177460192    2.14530037592646
H          -0.31422476780426    1.79917060434942    0.43243595181890
H          -0.42687987246075    1.53247013542665    2.46726348007400
N           0.25277176988899   -1.12773294075024   -2.49685021297349
H           0.26862809653221   -2.00284877706551   -1.92572099576194
H           0.43310377099450   -1.31436853407343   -3.47722565441004
H          -0.67338637089766   -0.61564269711331   -2.36021297276387
H           1.01844428025017   -0.50999517753540   -2.06475247622184
