    26
        -50.44706772  Gyration_radius:  2.48427520196 Dipole_moment: 6.050
 S           0.87557873568488    1.43410982692734    1.08761154962561
O           1.29549875457941    1.25335357525530   -0.31862233924720
O          -0.41874041016863    0.80930893790056    1.30463538932963
O           1.89829675402121    1.06506019771069    2.01535766139678
O           0.62362543695629    2.99229041448078    1.24828864918036
H          -0.25203483343498    3.13138204954417    0.89822858184158
O          -0.70530533431538   -2.01984504092164   -0.96847225416487
H          -0.39510503515147   -2.75019203562062   -1.50551377291529
O          -2.49604396739232    1.41233008470663   -1.49713702711604
H          -3.21223347023820    1.31193132403594   -2.12633207653055
O           3.35332088536132   -0.52515881317090    0.39001822709107
H           3.07562031913238    0.04841232944325    1.12558610638615
H           3.17013283551408    0.00018417344790   -0.39395775200366
O          -2.62132940528939   -0.38613864176293    0.37741244800333
H          -1.91275690955327    0.02905844053400    0.90372258233173
H          -2.69309993646195    0.79775114930785   -0.73284538533307
H          -2.21484353685908   -1.17193237478874   -0.01099374960703
O          -0.25040456135971    0.27787173770332   -1.94832935922832
H           0.44604152767845    0.72507673450023   -1.24150127480531
H          -0.43517897564072   -0.67582848082255   -1.58982169972637
H          -1.12262813158453    0.79966345811644   -1.84769176907339
N           0.85368542686082   -1.73839927413084    1.03039636071050
H           1.81696326586679   -1.55211738570577    0.73690436296355
H          -0.06902407878894   -1.97243532970177   -0.13322083829101
H           0.88495124272039   -2.42782850366932    1.77084567251375
H           0.50501338190474   -0.86790853329782    1.42543169666504
