    26
        -50.44706778  Gyration_radius:  2.4841939658 Dipole_moment: 6.050
 S          -1.60759505596941   -0.80112486254227   -0.88194568871821
O          -1.68111545830823    0.59842140419488   -0.41018699061288
O          -0.21899734793999   -1.21244987433014   -1.00521477364650
O          -2.44242999233028   -1.67843247230134   -0.12286407368558
O          -2.17106206145863   -0.76898191846459   -2.36475728301265
H          -1.43452934589156   -0.47822450582282   -2.89556015312148
O           1.72913270359507    0.61947908741639    1.46356149102334
H           1.89372228303837    1.07734049552228    2.28899630139764
O           1.67776269198846    1.45114273290626   -2.35409796970866
H           2.43358692603414    1.99646797495778   -2.57823018677505
O          -2.69104958415788   -0.16581375184137    2.09921856750621
H          -2.83543377512451   -0.83728440366172    1.40967707873763
H          -2.67704477801826    0.66388923029370    1.61395401386333
O           0.35945215005145    1.93859442160775   -0.21912021879148
H          -0.56002857547117    1.36265078222043   -0.30974794032110
H           0.93126063688008    1.43901817819974    0.48475073850897
H           0.84271382614547    1.83374436802272   -1.11279165494174
O           2.39407665692921   -0.65343062286486   -1.00425207625660
H           2.48144095630063   -0.34133116342055   -0.09403872744743
H           1.50612971699502   -1.05472894069716   -1.04800350140641
H           2.03772746201921    0.59644714339490   -1.97919677445857
N          -0.03753649219668   -1.17938422145258    1.84989850031638
H          -0.21692464682513   -1.48093397823968    0.89477882488077
H           1.03836360119480   -0.14291264131958    1.67800184464451
H          -0.91650123786834   -0.78078872627041    2.19235297210839
H           0.16487872039202   -2.00137372550861    2.40481766993001
