    26
        -50.44706774  Gyration_radius:  2.48425687497 Dipole_moment: 6.050
 S          -0.45722444099238    1.70115082737731   -0.95055290692604
O           0.94299165249999    1.22669631394936   -0.97799817945040
O          -1.34607044244399    0.60812194541631   -0.59282677421993
O          -0.61456573902117    2.89630774235967   -0.18261989601892
O          -0.80602230824380    2.05186786144422   -2.45806747650903
H          -1.02657077047127    1.21368037967304   -2.85485380516780
O          -0.26780867593656   -2.35418117761065   -2.20261413164801
H          -0.15767272481666   -3.28701540911769   -2.39387894426420
O           0.48441777823300   -1.67711258946283    1.57090515369003
H           1.13580146020376   -1.93671339833412    2.22386413863233
O           1.62335553832161    2.70323600626250    1.31472244649532
H           2.13586916545501    2.29533924971063    0.61109913866355
H           0.83527929150955    3.04818138949893    0.85965051340061
O          -1.79034482215909   -1.98522456633055   -0.12663015389117
H          -1.83562159313665   -1.01980055178168   -0.25848029235816
H          -0.97763536820308   -2.28371763167058   -1.50127280560877
H          -1.20281995812234   -2.10556873568093    0.63093401210402
O           1.43944435645697   -1.15786730471713   -0.72359417257129
H           1.08486109972572   -1.39598635183020    0.21971916493411
H           0.83366405863793   -1.63834365916677   -1.39092194879225
H           1.23786944813529   -0.09598791406505   -0.85125686898571
N          -0.27401976430447    0.70883324680418    2.05779434340083
H          -0.83779914579951    0.90372868632680    1.23345194688741
H           0.50862616977086    1.36870535408031    2.02988598921934
H          -0.83011943708572    0.92464738750766    2.87554850175673
H           0.16211517173694   -0.71297712066500    1.83799301723261
