    26
        -50.46846775  Gyration_radius:  2.39949581111 Dipole_moment: 5.642
 S          -0.80063535384183    1.61406298932840    0.25964001815324
O           0.56843489786691    1.21709346282512   -0.04903594480045
O          -1.56492444759903    0.42019423912124    0.69646455616097
O          -0.85874118871531    2.67230724532171    1.23133511806198
O          -1.46205698214380    2.09690223278136   -1.06645323750465
H          -1.26872462029576    1.39737865044601   -1.73595698356046
O           1.16162264596937   -2.20780062910961    0.03104895955387
H           1.84872911273424   -2.87362953112421   -0.01571002350234
O          -1.05732206148965    0.07999683035032   -2.75750406739220
H          -1.76805648293670    0.10164084820865   -3.40067113499238
O           1.28453723717900    1.79171998865713    2.51451168385195
H           1.91943765271532    1.95176471190371    1.80972793130878
H           0.46841460276078    2.24375190236405    2.19668799719360
O          -1.50631464623413   -1.68953624361323   -0.89102517874759
H          -0.67538233874938   -2.08970445349992   -0.59995161387178
H          -1.67969056111751   -0.95757711377137   -0.25944767354481
H          -1.26530145667866   -0.66927473471580   -2.13118881140947
O           1.58091630303649   -0.41679167409862   -1.80490803452050
H           1.36736299556230   -1.54849162586984   -0.69783091646981
H           0.90286766962041   -0.38368123840319   -2.48983899086424
H           1.32315254984228    0.30466493730042   -1.18683258436167
N           0.31295648887664   -0.63858957222163    2.09523037303450
H           0.85032697160682    0.24992714123479    2.32253632904001
H          -0.56560308886143   -0.26992358382718    1.59719347049655
H           0.80620352858457   -1.23651000596823    1.39855387179092
H           0.07779059230784   -1.15989478362072    2.93342487689507
