    26
        -50.44706778  Gyration_radius:  2.48420903768 Dipole_moment: 6.048
 S           1.47365034278946   -0.01593771553562    1.35409871271403
O           1.58271452359791   -0.12965247639000   -0.09083480896049
O           0.18385540449133    0.60978913575569    1.71668633168162
O           1.72228638529713   -1.21891123314820    2.08471984055405
O           2.58020792089858    1.03888117843850    1.77864059314355
H           2.60287843204459    1.66540983074836    1.06056132166594
O           0.28685281587880    2.79799113010091   -1.59793294801287
H          -0.08410624385136    3.38119534850833   -2.26211151218408
O          -1.76951811785121   -0.52179187671522   -1.45343947751965
H          -2.68964795355138   -0.78896627067942   -1.45933937586477
O          -0.82019608229131   -1.78316112794849    2.79605715645195
H           0.15196132676061   -1.76147271800963    2.75686316983922
H          -1.06795166529186   -0.85860776559099    2.88552197442834
O          -1.27372065891259    1.52005046163129   -0.02785094082291
H          -0.67704738124378    2.11951861322870   -0.60044504387418
H          -1.51739460979127    0.70184251209741   -0.61377609111012
H          -0.63337946322397    1.13250032842732    0.76261000605421
O           0.69457403882624    0.41296114361862   -2.55195761304808
H           1.17400190707567    0.11396752601355   -1.75685378255535
H          -0.16718623092222   -0.02096899055463   -2.50066733666546
H           0.55891417834342    1.95836410652710   -2.06863683809611
N          -0.44199247252659   -2.14937369219430   -0.00624032347226
H          -0.79026807758657   -2.17145083798548    0.95655728304833
H           0.46105877238615   -1.68194704036117    0.03039174020851
H          -0.28784829405609   -3.10555292829576   -0.30031052080809
H          -1.25269877729925   -1.24467665165121   -0.89231152682292
