    26
        -50.44706773  Gyration_radius:  2.48427002755 Dipole_moment: 6.050
 S          -0.52371565670962   -0.49807076330335   -1.86645049098440
O          -0.50638907270608    0.82428022671824   -1.26333229483529
O           0.35890481657746   -1.41139874831652   -1.10923584014034
O          -1.82155896810988   -1.05311415900302   -2.09089376691584
O           0.17374131778440   -0.32531350716341   -3.28100796507574
H           0.84680723930956    0.33439283180946   -3.13799815714732
O           0.08974943227157    0.43275815033628    2.30643407602723
H           0.06018518582902   -0.00255093183242    3.15947546440328
O           2.79415494075592    1.61032595730385   -0.25573273269192
H           3.51811126303054    2.03458817570477    0.20772229757974
O          -1.81290412977695   -2.89349631521832   -0.11598512232766
H          -0.87073144073482   -3.06740713120585   -0.19488987943733
H          -2.02786292005099   -2.39950873548684   -0.92651123849867
O           1.78223189221855   -0.54084963054949    0.68338583423840
H           2.27303240470367    0.25970766956603    0.28160153759138
H           1.11677315100669   -0.15901831965335    1.37875447151692
H           1.16649407791199   -0.94417867363786   -0.11843215924709
O           0.49738968277590    2.58632860206055    0.47675234413881
H           1.96808989122181    2.13330573870804   -0.04408469620589
H           0.00652954177020    2.10483344435693   -0.21512160278574
H           0.28687405529655    2.12394531898790    1.29861405928108
N          -1.95986138531462   -0.25402419395957    0.95261484811889
H          -0.79395201969860    0.16522342387168    1.80428299944731
H          -1.99793266686355   -1.26737088353179    0.80971459828535
H          -2.88749402882528    0.05540681617084    1.21398935380654
H          -1.73666660362796    0.15120565717216    0.04633406200474
