    26
        -50.46047702  Gyration_radius:  2.51695854016 Dipole_moment: 5.331
 S           0.11285797303481    1.21197776366279    1.83378441997978
O          -0.94231068830856    0.73580536617517    0.95336641356972
O           0.75385415632154    0.18506896790499    2.61478321338196
O           1.05646967647359    2.04371091403912    1.08586566835907
O          -0.59782364250797    2.17469492574870    2.88041277110159
H          -0.04865681207111    2.04777038233834    3.64674341861709
O           1.31901949188545   -0.81530027110250   -1.63824099688417
H           2.06207639841345   -1.20470706920090   -2.10047187143112
O          -0.61313957025350   -3.32407519603017    0.60112757103390
H          -0.68220170235259   -4.14256035295076    0.10853903531205
O          -2.04632550294715    1.59891121509358   -1.30288350939080
H          -1.90002086737742    1.48857974527014   -0.34239219576447
H          -2.30147461446064    0.71639099363806   -1.60080724377589
O          -1.38349649135169   -1.18327980150544   -0.89186448370140
H          -0.53142081239561   -1.15465127188045   -1.34917877711803
H          -1.08521269781236   -2.64075451483576    0.08266460621578
H          -1.27870981254140   -0.58896841652800   -0.12397002704878
O           1.51746025408114   -1.59353177569589    0.79566854657263
H           1.43245500659976   -1.08632016195232   -0.66750574987446
H           1.31047661841507   -0.95106719234508    1.50501455810847
H           0.84754605311319   -2.29793507899177    0.88408675079184
N           0.60826449703444    1.77001053609509   -1.42517438113011
H          -0.44406769983922    1.78520784170297   -1.52788416727680
H           0.82043891058535    1.95186060779466   -0.38063825346139
H           0.95858452256291    0.80704247416039   -1.62998771769912
H           1.05535736560690    2.46611936940141   -2.01105758846026
