    26
        -50.45450924  Gyration_radius:  2.45208799322 Dipole_moment: 5.295
 S          -0.19556897428702    1.94768686421328    0.72991380828334
O           0.72855647267416    0.82992418162713    0.79255821617838
O          -1.51014520129236    1.48393308662861    0.08019750408432
O          -0.50720033930037    2.55838280641911    1.97120146306461
O           0.38308886198405    2.97475162916297   -0.26750299317766
H           1.13624006975982    2.54087923712368   -0.77300845869999
O          -1.28018978971158   -2.23287223859208    0.45769665443720
H          -1.99891600548782   -2.85747191184604    0.56306084031755
O           1.32690022591938   -0.68944050979859   -2.32986339883029
H           1.73485179807543   -1.23280120752206   -3.00500437143196
O           2.31291199267272    1.63958123453754   -1.32962454651506
H           1.94628015404114    0.89592091994685   -1.84913353833531
H           2.56611556118703    1.25619516268312   -0.48337063031359
O          -1.28186674067320   -0.41820413407599   -1.56414789446376
H          -1.40574206560841    0.75705048083848   -0.64013636230948
H          -0.39574507649738   -0.44554595378367   -1.96929775073324
H          -1.31710941875543   -1.15972612719622   -0.92435861399628
O           1.41257126857420   -1.68088013903142    0.07699246876710
H           1.45633766176246   -1.15718862561094   -1.45532666550135
H           1.27875625521549   -0.80848911247281    0.48725178518599
H           0.57641046123692   -2.14705085431961    0.22712043296945
N          -1.42504615103135   -0.36539748030433    2.35576610428776
H          -1.35963133599772   -1.57303654812818    1.20614900971696
H          -2.13644906631815    0.30903904360966    2.09729837946449
H          -1.50620056537480   -0.52834724062085    3.35260139684599
H          -0.53921006276610    0.10310744651386    2.19296715070235
