    26
        -50.46047700  Gyration_radius:  2.51705434697 Dipole_moment: 5.327
 S           1.72864772730051    1.21599080764038   -0.61449611460180
O           2.60770970772237    0.68826373748107    0.39751605187513
O           0.86364394878850    0.22969861309167   -1.24216064875882
O           0.93934663750500    2.35964659554987   -0.15578721024210
O           2.67395723874886    1.76129029191896   -1.77055851552500
H           3.46250162630657    1.96667006131254   -1.27949960950451
O          -1.53002297354938   -0.15333742025437    1.64953051703731
H          -1.94023468306599   -0.15389956087062    2.51504248815707
O           0.85999861580113   -3.14898105846262    1.06235928406034
H           0.43676845141612   -3.92384266187303    1.43349801263460
O          -1.48534157550551    0.29792224029552   -2.47979758716290
H          -1.71495959682447   -0.61135133469418   -2.24922267787525
H          -0.51547173595900    0.33199205464135   -2.36036700514336
O           0.96414709054362   -0.58371700072720    2.05200053767587
H          -0.53754564729533   -0.27386560510795    1.82066349321178
H           1.09374791476226   -1.52060808965934    1.81058584953301
H           1.61153122928715   -0.08696768641175    1.51079173907845
O          -0.82474298070612   -1.76344094451570   -0.56473374800683
H          -0.10693733314936   -1.15035978205814   -0.81508904157735
H           0.27478275658713   -2.82073008597673    0.34933627232326
H          -1.26068405032531   -1.34419696528791    0.19041378805541
N          -1.55116501642104    1.75128839323889   -0.24946873206025
H          -2.18084514863528    2.54129021782659   -0.16494433106458
H          -1.66579246429562    1.07698464662323    0.54055001521496
H          -1.68280794711276    1.23834665488958   -1.16475321805767
H          -0.52023180189517    2.07591389148810   -0.22140962925453
