    26
        -50.46047698  Gyration_radius:  2.5169947771 Dipole_moment: 5.332
 S           0.99697785690717    1.57543746961830   -1.17001097329452
O           0.71789008103732    2.62170046434226   -0.21984735206535
O           1.38392333872403    0.30460104732421   -0.57787251471107
O          -0.07956251226789    1.37265492568102   -2.14019028071177
O           2.25935416849465    2.06848933111092   -2.00096819209372
H           2.16888711354042    3.01261643116316   -1.92619019648505
O          -2.06219853173911   -0.69905879344156    0.58768917854649
H          -2.98014025812554   -0.70060126852271    0.86121580668633
O           0.39517978642585    0.36514233107000    3.39053790030036
H           0.09487644276951   -0.05476215931198    4.19727856747272
O           1.28212522549306   -2.23793033793254   -1.33889335612653
H           1.23328485802280   -2.58123325622126   -0.43755439255102
H           1.63369833813963   -1.33254681704378   -1.22572756208090
O           0.56932385627744   -1.41259252098759    1.33776477246722
H           0.62185179964005   -0.35312812578976    2.76487438545304
H          -0.38470480970112   -1.37407711481277    1.18172313126761
H           0.94912143221037   -0.72812442062471    0.75372798387591
O          -1.09133965912433    1.53259811367473    1.39126819744232
H          -1.69912772224696    0.20652583293176    0.86458541563968
H          -0.56840612907348    1.30198520578562    2.18262672731049
H          -0.46961934207568    2.00593222854374    0.80114781149508
N          -1.01512886294727   -1.00100689970501   -1.87114885678799
H          -1.54198387415929   -0.95269348986987   -0.96997237087372
H          -1.60430841745804   -1.31055580872087   -2.63586831045515
H          -0.63908954998810   -0.00394728224218   -2.05388117700041
H          -0.17088462871274   -1.62542506621950   -1.74631434275966
