    26
        -50.45450911  Gyration_radius:  2.45141992942 Dipole_moment: 5.297
 S           0.44841771780308    1.32402685318095    1.55096323581979
O           1.45939793452366    0.16530074585800    1.52636410557414
O          -0.61471501954621    1.05322583076084    0.60014881934436
O           0.03650751693684    1.52283084147716    2.89319895273779
O           1.24511079608338    2.53782795533824    1.02505482334901
H           0.96249683451318    2.72052125836609    0.07731146202554
O          -0.52489920400204   -2.55830758726292   -0.08776624123671
H          -0.44475806276959   -3.50244381915633    0.05350398011329
O           0.53859185721866    0.46301607751351   -2.67581299274835
H           0.53404114709108    0.34629303434921   -3.62650278011116
O           0.26641224755342    2.81699958433126   -1.34061574525019
H           0.52190988968785    2.04690581400981   -1.88733295350401
H          -0.62614889004518    2.62472750258141   -1.03456096027307
O          -1.59631245908828   -0.39460388088599   -1.45504565229883
H          -1.41198978686410   -1.29516336843373   -1.14842154568704
H          -1.42721529133080    0.16415749115266   -0.67625421785764
H          -0.34063669001778    0.13162523673737   -2.33299140108030
O           1.64887682373554   -1.04134292463844   -0.68316052390957
H           1.39935773806238   -0.47111057065598   -1.43332316073555
H           1.58656576008891   -0.27859808383195    0.60718243297349
H           0.91017285699935   -1.67291895998830   -0.55716815402155
N          -0.95596746187355   -1.33289763761794    2.24152241069280
H          -0.71407065129608   -2.14810173172551    0.80541795164471
H          -0.07421203956832   -1.25125870383366    2.73503103107435
H          -1.16015041251085   -0.39883073040912    1.90024755714201
H          -1.66678315134959   -1.57188021724969    2.92300953620632
