    26
        -50.45450931  Gyration_radius:  2.45165524728 Dipole_moment: 5.291
 S           0.34744462581775    1.23533771302527    1.64741565924812
O           0.24052914349636   -0.17628950970629    1.32603629369646
O          -0.12561967975076    2.06770771146599    0.44371205977021
O          -0.37494823125840    1.66175632794622    2.79073647355653
O           1.84900326403767    1.57074618064927    1.77789887917244
H           2.38242499885073    0.79580103070920    1.42253628305313
O          -2.08684484858718   -0.44279375381532   -1.50878552163524
H          -2.84472605452592   -0.28346939457787   -2.07271042316500
O           1.97797600717535   -1.09658922860265   -1.59802883266927
H           2.39473063981333   -1.64366915874312   -2.26474759993407
O           2.94308385786404   -0.58593467774618    0.89244826165923
H           2.74783344281276   -0.67923838679931   -0.06178194291959
H           2.29636809709462   -1.14279074194666    1.33844906370410
O           0.21003924061995    0.97712385302257   -1.80881945417026
H           0.07662622088412    1.65294081633530   -0.47529544112595
H           0.94308414401623    0.33487988242461   -1.79876318644399
H          -0.61765947022507    0.45289399700287   -1.83076613345421
O          -0.13824590705054   -2.13588442597526   -0.49099086826764
H          -0.06462579284913   -1.56020453232208    0.29030500949298
H          -0.91028033341951   -1.79547271632965   -0.96757897352555
H           1.20781655721943   -1.61624290628132   -1.22789725481708
N          -2.56498225040565    0.51628034884920    0.93337295908119
H          -2.42838431942230    1.52076204222761    0.92217755088623
H          -3.38028969170585    0.32506815347703    1.50387934296597
H          -2.32419452353358   -0.09339461427657   -0.60133173564130
H          -1.75615916694519    0.14067600002791    1.41852954147054
