    26
        -50.46846765  Gyration_radius:  2.39930979344 Dipole_moment: 5.645
 S           1.45503012811368    0.80958625153724    0.73491062676297
O           0.60320609383173    0.02146685455952    1.65865803161706
O           0.75911142744403    0.96825594895201   -0.53697722886642
O           1.84390517693702    2.06961628419674    1.30795786424197
O           2.72826013593993   -0.04999035601037    0.47188979999999
H           2.42492681913136   -0.83164201482494   -0.04958585273811
O          -2.20149120649828   -0.82641239700730   -0.83104966352105
H          -2.96966711756747   -0.96347765650376   -1.38666483090103
O           1.79768687473205   -2.21542976736987   -0.76787992981650
H           2.39933739231081   -2.93574591306458   -0.57186970639084
O          -0.29714897602377    3.31036099010065    0.36312847793455
H          -0.07976294145188    3.22868087434747   -0.57043485689377
H           0.52793807883123    3.02157974549835    0.81842940796598
O          -0.07449013652662   -0.73376609357792   -2.32171038938957
H           0.29603424621114   -0.00071422297105   -1.77920570122192
H           0.54368178704450   -1.45967953929046   -2.17711083628185
H          -1.41302951454618   -0.80394001601232   -1.45238254042532
O          -0.31520017325099   -2.28710653240009    0.76394731420808
H           0.98848837054100   -2.36067805836709   -0.20128057733237
H           0.02444739168976   -1.50102394613128    1.24514885119053
H          -1.09236750113571   -1.97651461809904    0.27932091173920
N          -1.63035813023184    1.11049067943975    1.00350481018793
H          -1.24908800458978    2.04344787590271    0.66575663298199
H          -2.35217740546273    1.23207033607029    1.70622893398567
H          -1.95688209841806    0.50574361537949    0.21997238221758
H          -0.76039074705035    0.62482168564985    1.40729806874479
