    26
        -50.45932260  Gyration_radius:  2.4074425628 Dipole_moment: 8.394
 S          -1.16776123304011    0.41532527609376   -0.23764228166503
O          -1.65067999907315    0.23319300725236   -1.66264923753337
O          -2.32131734167550    0.70473382836299    0.60675850800156
O          -0.51814027933570   -0.83749655303993    0.20073627309957
O          -0.19127978597270    1.51109718843933   -0.17362188407437
O          -0.12573648478687   -2.66513965513381   -1.74523086412363
H          -0.98497107481812   -3.00756393210317   -1.99718881180991
H          -0.27413988476037   -2.09932331573020   -0.96403917869242
O           2.21010683706703   -0.79047247672869    0.40855478779441
H           2.34517226949914   -0.76563561088153    1.35709907205294
H           1.25098508672930   -0.88323551350993    0.27610875362783
O          -0.02360442226764   -0.52854415586920    2.77214549991335
H          -0.20671019509232   -0.71256651795020    1.81887401337669
H          -0.50070321505214   -1.19952359630367    3.26327944451088
O           1.99490903021878    0.98973922151991   -1.67272827295608
H           2.40196676566803    0.35422483082887   -1.06260937292868
H           1.26080028391529    1.37789113010172   -1.16345430023598
O           0.27599145450182   -0.37938007969450   -3.10359575010992
H           1.03462949245509    0.13242160380754   -2.71012860461079
H           0.36815103752598   -1.30647785150775   -2.79943214453237
H          -0.84322454913992    0.01941285483710   -2.33188378518315
N          -0.86087611604989    1.93403564535769    2.24255131567864
H          -0.29720013823911    2.07090571338197    1.35884841488321
H          -0.99715410062978    2.76971219081013    2.80019518047205
H          -1.73830945452046    1.53329127962095    1.75968893874325
H          -0.44090399312672    1.12937548803582    2.75936426629781
