    26
        -50.45450936  Gyration_radius:  2.45176638659 Dipole_moment: 5.291
 S          -0.34936508703952    1.84996051786768    0.90325555895522
O           0.76108730459239    1.02097429652820    0.47093010276406
O          -1.64872534251593    1.02923534175899    0.84537436177401
O          -0.23327529363309    2.40319036522161    2.20371344509900
O          -0.54677582933107    2.95416810030144   -0.15798348204266
H          -0.00140095666482    2.72003481942201   -0.96966862228462
O          -0.34097809229984   -2.47369531673633    0.77171923054797
H          -0.75801512166011   -3.26206657826806    1.12146654210111
O           0.31185625389625   -0.39473199556155   -2.72292872603102
H           0.51013256231356   -0.83352222398156   -3.55095387525321
O           1.00738543983671    2.14585378377454   -2.04621369839644
H           1.68701570808571    1.87214091174008   -1.42136442788135
H           0.65405302206312    1.31434921325052   -2.42177094247013
O          -1.68030711460684   -0.79856411745281   -0.89628018164826
H          -1.24485060326517   -1.49945278188378   -0.36759313248037
H          -1.68644568255371    0.33286937186047    0.08946013134990
H          -1.08293582099576   -0.60380084043256   -1.64141542120787
O           1.68107858205381   -1.24242974143563   -0.67564648104025
H           1.52134889857200   -0.42267986866655   -0.17588858512883
H           1.14187975215007   -1.90812630087420   -0.22273708200872
H           0.92159750002388   -0.78025201172104   -2.03028136231336
N          -0.11381105271023   -0.64511343553236    2.69976466093058
H           0.46309693551052    0.03481881526640    2.21447793713383
H          -0.25141834103337   -1.83216534180381    1.53478978702359
H           0.28953901463285   -0.78871832752534    3.61818640528378
H          -1.01176664541932   -0.19227665512388    2.82758785722278
