    26
        -50.46603989  Gyration_radius:  2.42525979125 Dipole_moment: 5.936
 S          -0.95701114493332    0.98653247475181   -1.52226338902533
O          -0.90753700915092   -0.48079766879406   -1.56353487590728
O          -2.14159137188906    1.50284764836189   -0.89367685932745
O           0.29198619743105    1.49027214548862   -0.98043136514065
O          -1.02056065231101    1.46224746905227   -3.03279701997667
H          -1.92440618004290    1.75366329349597   -3.07697065697210
O           0.55653781806923   -1.84654681337919    1.61660162154104
H           0.58246078049061   -2.46225379553640    2.34906895975260
O          -2.03114630887661    1.01664450317541    1.76849589230368
H          -2.19151561223686    1.36230145204558    0.87257744479836
O           2.82763916242794    0.89471731215137   -0.42594051887285
H           2.70536273896191    1.06102080175231    0.51942672751957
H           2.11619395347616    1.40819987671740   -0.84735358454583
O          -1.83913290822686   -1.45082633255226    0.80598300885800
H          -2.08460970565927   -0.61933717459926    1.27900311103814
H          -1.70318461181437   -1.18218065409238   -0.11881002063890
H          -0.41876411614458   -1.75756604999304    1.35136089998196
O           0.80207509454005    0.98537520462573    1.63053921025115
H           0.74763423554311    0.02214918426150    1.71696872133283
H           0.54881578347598    1.20997027053492    0.71667582916202
H          -1.11356678575236    1.24161167631556    1.98683736406069
N           1.44879138347571   -1.33798591221662   -0.84353935546299
H           1.84652751346698   -2.04276632076329   -1.45477924386805
H           2.09844148450848   -0.50309552545839   -0.73076576316405
H           0.51496254434979   -0.98957019130145   -1.22816748348688
H           1.24559771672711   -1.72462687398769    0.10549133576751
