    26
        -50.46253667  Gyration_radius:  2.45887100346 Dipole_moment: 4.992
 S           0.92354068989716   -0.27572565594339    1.82932100581823
O           1.47936320391783   -1.40259691147819    1.08320177780050
O           1.80529513614869    0.85927610135678    1.90164289041342
O          -0.42187505032655    0.02942408245176    1.36958305272552
O           0.74012338744775   -0.78898657145550    3.32539128164807
H           1.60032355986746   -0.62411921935035    3.69751918223155
O           0.32833260855878   -0.14103506285866   -2.37496894086651
H           0.73202497158921   -0.03361442160643   -3.23684443536600
O          -0.11332027238913    3.24472078120665   -0.32875998036902
H          -0.07916218737306    3.29118306532569    0.62888517917775
O          -2.41344690827653   -1.47957982573908    0.45547893299669
H          -1.83907472871420   -1.00705414858501    1.09002720646103
H          -2.81382509946395   -0.77449360689615   -0.06893060540043
O           1.71436288789478    1.28633710525004   -0.73345664756343
H           1.19803308320488    2.12052661806165   -0.69704502356989
H           1.87884020697880    1.05897764217469    0.19908614037588
H           0.91045537712320    0.37502138475978   -1.73637298614547
O          -1.68698013665256    1.04844609088404   -0.78139003154723
H          -1.22541526835129    0.75485473904594    0.02688308854135
H          -0.85635006068350    2.64886140587658   -0.54777541359343
H          -1.15836822476183    0.70814513790976   -1.51630063634534
N          -0.14834886696946   -2.20763948099400   -0.73627995736340
H          -1.11768128102400   -2.05377693838711   -0.34204863990978
H           0.01958297954080   -1.53181066308439   -1.51421272536789
H           0.55121456843221   -1.93866558615124    0.04043922106532
H          -0.00764456552533   -3.16667603174857   -1.03307294579547
