    26
        -50.46253667  Gyration_radius:  2.45898033984 Dipole_moment: 4.995
 S          -1.82998614836850    0.60051054588240   -0.75163893558746
O          -2.70778565574763   -0.43319861122822   -0.27008808901545
O          -1.58569866242116    1.66205736583476    0.22247578234043
O          -0.57649975111555    0.12023053118590   -1.31076835235371
O          -2.58651290230293    1.29049913944216   -1.97089684433518
H          -3.49379013389471    1.25424431830851   -1.68607222450626
O          -0.21279439106481   -3.25543420626100    0.03726335003761
H          -0.86826182508341   -3.16776045477359   -0.65783064876106
O           1.31770191657892   -0.15144352119724    2.00050811886000
H           1.56144837009272   -0.33815239329838    2.90777367684775
O           1.73888892245201    1.30544138489508   -1.87155366306745
H           0.82556660635630    0.97729810320221   -1.98999111763367
H           2.26568054286666    0.50229469467163   -1.77185354806172
O          -1.00314064453603   -1.21357782846893    1.63183320240453
H           0.38873456746958   -0.52225646983232    1.88701333391359
H          -1.69345409785606   -0.84883107413024    1.04964035967221
H          -0.77265729994981   -2.07877788607898    1.22914623796693
O           1.59794174066999   -1.29270720534182   -0.57528371859798
H           0.57561438414612   -2.76427357243435   -0.26636692341144
H           0.77714318490699   -0.85137873295470   -0.86503382812231
H           1.73351687146309   -1.00727854196323    0.33880989485751
N           0.93213979991342    2.06686579913114    0.54705263572641
H          -0.13441897248589    1.96807418844371    0.41472602825595
H           1.37647393290704    1.88147623872010   -0.39475118934208
H           1.16835961401237    2.98597806881087    0.90349841100625
H           1.20579004096653    1.31010011945388    1.21238804092607
