    26
        -50.46603979  Gyration_radius:  2.42511980968 Dipole_moment: 5.938
 S          -0.44727621864699    1.50373815527947    1.32156986909856
O          -1.26700890941016    2.39735122662666    0.55066935762533
O          -1.05762827765087    0.18449944978910    1.53267168532185
O           0.90462305036710    1.32912426668023    0.82258859648787
O          -0.31808818241284    2.15838411871261    2.75934642856149
H          -1.00398603773762    2.81439632262862    2.70448876568206
O          -0.29223856899525   -2.10277055881011   -1.35070513720579
H          -0.52868999608205   -2.76018860713560   -2.00502186174406
O          -1.32924131679742    1.55407439422590   -2.02238984491782
H          -1.33659366641003    2.05318117112445   -1.18651607376472
O           2.92037835462020   -0.38881901992006    0.54081532398388
H           2.50530517239534    0.43728807824806    0.84502479398173
H           2.90189448322861   -0.31609878303345   -0.42401450515058
O          -2.27694824510784   -0.59122555092245   -0.77714595182266
H          -2.05389329514634   -0.28692996207037    0.11925786610987
H          -2.11673685861327    0.19100410633369   -1.35840407288472
H          -1.13113830240678   -1.56019066970055   -1.17338207347383
O           1.19185542908114    0.30044641603654   -1.66528661366602
H           1.04579856961097    0.73602918946704   -0.80583593047318
H           0.71455230175200   -0.54223550204013   -1.64702053597946
H          -0.40334343383068    1.32274005933802   -2.19352833847936
N           0.68324623578635   -1.70923726003695    1.09909883907848
H           0.34829463596216   -2.09206745579239    0.18662933247126
H           1.63891191650193   -1.26812627724835    0.94403747041719
H          -0.00499460266400   -0.93746241978010    1.36801899439366
H           0.71294578259098   -2.42690489798300    1.81503361636505
