    26
        -50.46603945  Gyration_radius:  2.42512857857 Dipole_moment: 5.949
 S          -1.24492266057108   -0.81997030337125    1.40896912172694
O          -0.76751782834157   -2.16897784863099    1.53890935472371
O          -0.27066151259037    0.19017391019076    1.84264073282276
O          -1.73929076283677   -0.46971630117619    0.08998602110415
O          -2.47435125529624   -0.69254859689559    2.40105323404941
H          -2.34793482836653   -1.47642147771776    2.92392358161589
O           2.05345615514573    1.07983562936708   -0.97557095036333
H           2.91729465934789    1.27217250943484   -1.34028450528915
O           1.14774640045117   -2.61731708620608   -0.32290802238879
H           0.42357402553315   -2.66921997304701    0.32570795034316
O          -1.96422474844581    1.47968073296819   -1.71124370538790
H          -1.45435703177288    0.98597837875416   -2.36918665045378
H          -2.30674689231033    0.79011540834871   -1.11599456922625
O           2.20328248220230   -0.56051160941187    0.98410391389925
H           1.40131643464361   -0.34981923540254    1.49248712514349
H           2.00810026446355   -1.42472565920591    0.54797183719084
H           2.20414026178496    0.43840006065269   -0.20406893797673
O           0.00259550347070   -0.61450427137630   -1.97788935543358
H           0.77282056681099   -2.20931511395000   -1.11845730183445
H          -0.61153141507789   -0.64665814881965   -1.22191533752016
H           0.74570212907090   -0.04830413086250   -1.72209577676561
N          -0.14190652997333    2.13481597410698    0.10866786946519
H          -0.90161763880341    1.99460260854212   -0.62270966529871
H           0.78264248507399    1.94876721460955   -0.34092117006122
H          -0.17810582255379    3.06390949616931    0.51361677160000
H          -0.25950243111217    1.38955784295024    0.86520844434582
