    26
        -50.46282784  Gyration_radius:  2.50890813452 Dipole_moment: 5.032
 S           2.07936118614445   -0.29533548687361    0.29297234373435
O           1.68253713732706   -1.53256201913928    0.96440337265099
O           2.36138189410202   -0.49662955437590   -1.10900232271841
O           1.12041627448159    0.76447588713240    0.55629407675558
O           3.44322323155126    0.16325746044817    0.95545719962153
H           4.06380421367640   -0.32010876330689    0.42106804533177
O          -1.68641267004655   -0.55196161633037   -1.40437451610608
H          -2.28741974185139   -0.83903878109416   -2.09254705070447
O           0.59767588910437    2.73603589518497   -1.19987695238292
H           0.97125432060756    2.12691519311151   -0.53505819115911
O          -1.91624176324711   -0.38479904706161    2.62125614983319
H          -1.31018627023217   -0.13287954031079    3.32024990721970
H          -1.91633482791867    0.37150897139396    1.97667652777240
O           0.36078927247823    0.41352173377468   -2.58675039747578
H          -0.87284362491771   -0.17911472942879   -1.88895680406037
H           0.41399942629391    1.35553626715971   -2.32943835011069
H           1.14848212821511    0.00979394179226   -2.16524932040871
O          -1.51225833791239    1.32213340130337    0.66552670908025
H          -0.54364671695293    1.20591482533858    0.69858436269694
H          -0.21578426809554    3.07032429808062   -0.81321265668452
H          -1.79108668141422    0.83032098621769   -0.12120905877195
N          -0.84905947969654   -1.94826955918933    0.75035159432586
H          -1.30625773612358   -1.44855180639232    1.56280524547798
H          -1.06969898345352   -2.93815242429379    0.75958454123813
H          -1.18052376240468   -1.49825387874375   -0.13444165402789
H           0.21482987038279   -1.80408163454570    0.83488719878197
