    26
        -50.47126444  Gyration_radius:  2.39779220954 Dipole_moment: 2.932
 S           1.12820479649023   -0.26401105614679   -0.91055659312116
O           1.54328994514002    0.12426571301600   -2.23202773035834
O          -0.30220942059705   -0.60357057421837   -0.85379857945330
O           1.93412612369916   -1.29748579331381   -0.28413225021501
O           1.29642293002540    0.98662772282840    0.04664670762094
O          -1.70382877692851    1.01787597971785    0.75905704011621
H          -1.30419564353173    0.36536565338254    0.15034792120516
H          -1.57362966618700    1.87172350522468    0.33277424285238
O           0.16914526622963    0.68705065023106    2.60087112887999
H           0.85077603379749    1.08878302015736    2.04731473617024
H          -0.66768560337446    0.84044746293126    2.09627746439020
O          -1.17978398313099   -2.77339756409107    0.37236809395829
H          -1.01662264715955   -3.52354754589541   -0.20119879201039
H          -0.96354075071558   -1.97310485226686   -0.15833009626596
O          -0.74280161265440    1.09427985596642   -3.03349814975989
H          -1.32050591249348    0.40581607539649   -2.69129056312534
H           0.16411370865059    0.72199719653877   -2.93466513549252
O          -0.30906690994276    2.73515421906783   -1.06170815752687
H          -0.57240564941258    2.19616641971925   -1.86243858570330
H           0.72918256590017    1.69253000573299   -0.35397665097334
H           0.14035584414216    3.51107736538727   -1.40149029502584
N           0.74418759188910   -1.79740539958472    1.94574417628196
H           1.34363654548860   -1.61340282609881    1.07311601606820
H           1.24460265239536   -2.35158519653292    2.63200684124007
H           0.46758554771123   -0.84477154164077    2.33899939746630
H          -0.09935296543055   -2.29687849549977    1.58358781278725
