    26
        -50.46253675  Gyration_radius:  2.45973319503 Dipole_moment: 4.996
 S          -0.52725057982606   -0.50128564231838    1.93669095745075
O           0.06124558578833   -1.80678202778912    2.07983256824574
O           0.40596749948486    0.59289589931377    2.19636926161505
O          -1.23125721336560   -0.28747525004875    0.68243633163115
O          -1.64922904544906   -0.39611463580172    3.06132256084785
H          -1.25334099248312   -0.87843036567369    3.77982428277294
O           0.06777248389025   -2.86956976241703   -1.55731026632688
H          -0.54578335266669   -3.18983467274521   -0.89296249807680
O           1.82773455801675    0.69360619397384   -1.39090619297170
H           2.69950921831658    0.72227597793992   -1.78664751467918
O          -2.06885815193491    1.90010336506537   -0.57881916847456
H          -2.03463329240344    1.50421571296138   -1.45888144886656
H          -2.07387598866519    1.13270863896892    0.02705039860232
O          -0.76151030102390   -0.29229091509263   -1.97212999548386
H           0.12914360066142    0.08063896085637   -2.02727484802342
H          -0.32886294956503   -2.05653578204959   -1.92728574658063
H          -0.95100778343600   -0.36964104195468   -1.01791514891829
O           1.74107507343960   -1.45332114506128    0.03482022790975
H           1.24561246698020   -1.54534533033811    0.86838641754060
H           1.31452677682907   -2.09093578865289   -0.57772812097787
H           1.82666930966576   -0.11766386937030   -0.79485451331371
N           0.42907521534977    2.27891928514896    0.25601649688004
H           1.05726059372625    1.82286111303333   -0.44234829409814
H          -0.55916543495176    2.29464408927741   -0.12054188039910
H           0.42507387169093    1.62661745205354    1.11591408212767
H           0.75410884185809    3.20573953067155    0.50694208158082
