    26
        -50.46742658  Gyration_radius:  2.40200952379 Dipole_moment: 4.775
 S          -0.54898646684494    1.61759340306867   -0.20840090717536
O          -1.69945651602100    2.37201013719067    0.28295029864787
O           0.47957333170263    2.40335560112969   -0.84539738988698
O           0.03762000542944    1.00420524322254    1.11984247613590
O          -0.97285857467489    0.48828360879020   -1.03593018581802
O           0.73596479728228   -2.46442054308013    0.08947984011151
H           0.93666719833019   -3.39432995549097   -0.02110598776213
H           0.69580252233072   -2.07660203179065   -0.83062400190436
O           2.41066936791499    0.90025980602802   -1.72024736739176
H           1.66550297697616    1.50081147876810   -1.45348271815341
H           3.10770081280586    1.47664583761917   -2.03714177754858
O          -1.79116749974562   -1.38161746402410    0.56146293324206
H          -1.59579253560469   -0.75110196741311   -0.17414425696677
H          -0.95362259727029   -1.86378392069620    0.66920231600441
O           0.68639518922983   -1.21817701570274   -2.21380220071019
H           1.46246920348058   -0.64496315105552   -2.29031771765957
H          -0.03234150565514   -0.60368533362221   -1.96136503053691
O           2.23120294333477   -0.25923242908399    0.72651897282711
H           0.93639684161456    0.56482269075246    0.98433113502743
H           1.83666234999891   -1.14094831651990    0.59826504174003
H           2.47990650769512    0.06990355634041   -0.15872915362685
N          -2.44843601219144    0.67540141733704    2.01556319799253
H          -2.19676217386872   -0.25456760773549    1.52693683752801
H          -3.42618465045632    0.70732702364175    2.28693777711024
H          -1.83470125678665    0.81229015154787    2.81365793636783
H          -2.20222425902649    1.46051978072988    1.27553994233847
