    26
        -50.43974322  Gyration_radius:  2.62965525353 Dipole_moment: 1.943
 S          -2.14455409040106   -0.00313964364217    1.24848767383108
O          -1.39938199456602    1.23133760927570    1.59403760238113
O          -3.08300850388880    0.23760589741677    0.17799588607428
O          -1.25035531218367   -1.11187099659315    1.06418053900752
O          -3.02085701651708   -0.32237717283652    2.53877943010267
H          -3.75228897421818    0.28334798105848    2.45952021937124
O           1.19746470906043   -0.83558695716300   -0.57732581162201
H           1.97078230267941   -0.60016841298211   -1.11822233420667
O           0.56170932822064    2.46653679952177   -1.19439876488718
H           0.07343965916595    3.28981768132120   -1.15466474431296
O           2.63696485185300    0.76697768275256   -2.21468655849840
H           2.07605264978611    1.49502283127748   -1.91026571531646
H           2.40352640663120    0.62000747141570   -3.13293448309967
O          -1.06725190675360    0.47282925400560   -1.53600256907134
H          -1.88436151554075    0.41440818346126   -1.00216959003090
H          -0.11114635088532    1.75369312924984   -1.41166236424012
H          -0.51300571305523   -0.27013635326850   -1.25250004398760
O           0.95649265607889    1.12202494908294    0.99023336128118
H           0.94360930690714    1.80415555949070    0.25313415083718
H          -0.09758435295973    1.13925749082539    1.35262062890929
H           1.05456851286622    0.23133345282110    0.45964387493062
N           0.94450254626561   -2.98078102696316    0.94142747570285
H           1.42291694234010   -3.10365864258245    1.82521622204607
H           0.06866686837230   -2.49303303797067    1.13326421866534
H           1.30534724730366   -1.70827141858774   -0.12156740343452
H           0.70775173357490   -3.89933231026146    0.58785911955683
