    26
        -50.45450910  Gyration_radius:  2.45190422142 Dipole_moment: 5.287
 S          -0.35215402756092    1.93626599053714    0.69885581743238
O           0.02680719621000    1.00593498571183    1.86367076699491
O          -0.51724084916108    1.14888219766172   -0.50946121291517
O          -1.47880224043084    2.70185632140351    1.09302007844090
O           0.89053847476612    2.83216092472435    0.50467466072427
H           1.39191395822666    2.51233588827237   -0.30595992056684
O          -1.04169086545009   -2.33211412015169    0.55656685699672
H          -1.35593924609803   -3.08514246123273    1.05854446679740
O           2.29354702089729   -0.81369887933500   -1.31990050253557
H           2.89350995481967   -1.36380995791380   -1.82477873459259
O           1.90350449165994    1.85654420379493   -1.65366135404929
H           2.21582165274523    0.94480506946598   -1.48445554732021
H           1.03677865470537    1.75544718555412   -2.06066952255837
O          -0.23229040488600   -1.18355897623752   -1.83651850549349
H          -0.57274111456930   -1.80941339720739   -1.17972079129502
H          -0.47553722957084   -0.30921997124236   -1.48485341995908
H           1.36662914971284   -1.02288300953455   -1.63193209405482
O           1.28227342267284   -1.08291052502170    1.20425930420111
H           0.59845825049576    0.19221961579482    1.60072102682417
H           0.50971899001741   -1.64490471720273    0.98576152943418
H           1.77971350465333   -0.96339094406196    0.37465412304504
N          -2.53936536513149   -0.19525636519907    1.10612486336691
H          -3.55135141114885   -0.14862291761071    1.08408664478342
H          -1.65002701229684   -1.56724138586163    0.77293717762217
H          -2.18752909822143    0.44066443339521    0.39724974961272
H          -2.23454586706934    0.19505082150821    1.99078452907440
