    26
        -50.45450913  Gyration_radius:  2.45149816897 Dipole_moment: 5.294
 S          -0.25391464805342    0.98142855864195    1.82523543060610
O          -1.59101072029045    0.39620700904894    1.34041706053309
O          -0.10455712562106    0.66430339887247    3.19927332781807
O           0.81385648097022    0.52417208865525    0.95446216095397
O          -0.40528546116031    2.50402842879658    1.61647067811442
H           0.12431200021475    2.77019373909479    0.80412438259041
O          -0.45719819378980   -2.44279180254398   -0.80783216554985
H          -0.91186368825021   -3.27029909738463   -0.97012334000522
O           0.27596838855176    1.26389851051003   -2.44992991912804
H           0.44696435024804    1.38480445600923   -3.38460382004090
O           1.09903214883057    2.89791327175793   -0.43671742215434
H           0.70318302475488    2.45997384278316   -1.21685035167209
H           1.76433319321674    2.28204120919147   -0.11178715441453
O          -1.72219216009905   -0.06133046725838   -1.13880391809886
H          -1.66727423487557    0.27719742237929    0.32141559582524
H          -1.12051222031312    0.51116776916709   -1.64899396957649
H          -1.31823305909596   -0.95419826228394   -1.13407051494056
O           1.61338641782005   -0.67073752018028   -1.32998493112612
H           0.87022268246887    0.52434655983984   -2.13372057449691
H           1.49684765078174   -0.29383445025497   -0.44025808665076
H           1.04566772641607   -1.45599840866992   -1.33404057913417
N          -0.12645502263629   -2.09774241513708    1.81608250008567
H          -0.33092852041314   -2.37280240668386    0.18260187156131
H           0.26886251326168   -2.76766816929085    2.46544495084437
H           0.48565195180446   -1.28801844200352    1.80019023447775
H          -0.99886346474743   -1.76625485305909    2.21199856358534
