    26
        -50.46846769  Gyration_radius:  2.39951516146 Dipole_moment: 5.640
 S          -0.34586319628417    1.77725280316941   -0.18559484309969
O           0.88754226662956    1.00261930028458   -0.10786412210323
O          -1.48125350372141    0.92602148929035    0.24590550758692
O          -0.27462838842599    2.99856745677558    0.56982031156277
O          -0.59674184288639    2.11513202038405   -1.68620511855809
H          -0.49185830513384    1.26468880490586   -2.17675117431607
O          -0.48185926933839   -0.24975315395789   -2.90544502937235
H          -1.03121492066507   -0.19194065774253   -3.68909342697815
O           0.46703373570831   -2.36575328085886    0.64227420297359
H           0.93872772478000   -3.17008549944630    0.86184188938492
O           1.26872273665639    1.91468357164798    2.42940238659643
H           0.68384917557163    2.47393639581253    1.86678800837882
H           2.03801994070109    1.76184884066654    1.87241138826723
O          -1.73717921976138   -1.42049133844938   -0.93798354237463
H          -1.80620983395212   -0.55179937920787   -0.48465997140572
H          -1.00095249522013   -0.77596056966633   -2.23429435064776
H          -1.11995864039970   -1.94077158646912   -0.40556777756729
O           1.69319776010452   -1.16252543444054   -1.30793774587843
H           0.97581662680010   -1.94659038444535   -0.11511744396377
H           1.18603855732465   -1.11122452621957   -2.12654838142847
H           1.54366088816698   -0.28590982644059   -0.88590948325693
N          -0.25977408605486   -0.23702892092795    2.18508203976304
H           0.16026343263652   -1.07074224327438    1.72137318766294
H          -0.77756836664098   -0.49558584816641    3.01854429816375
H           0.45745352656404    0.52108096585491    2.38697648428042
H          -0.89526429316058    0.22033100092155    1.44855269633041
