    26
        -50.43974346  Gyration_radius:  2.62999239754 Dipole_moment: 1.948
 S          -1.85492090000630   -1.52184265394663    0.63641870422332
O          -2.26633197245647   -0.12784641440994    0.93147638280745
O          -2.32121367827557   -1.93769791421556   -0.66507374396395
O          -0.45497482750591   -1.71285206790500    0.89415733631839
O          -2.64724992638937   -2.41024260029464    1.69331664733618
H          -3.52497297728403   -2.45561802880626    1.32488575860653
O           1.54993574307675    0.22799483671563   -0.09476956663582
H           2.09228413246189    0.95323218813256   -0.44948594136075
O          -0.87009131563340    2.24102964035845   -1.43182929784361
H          -1.75989468726948    2.50865703710158   -1.66503921081467
O           1.98867685344943    2.46182527693369   -1.55838701079995
H           2.21309427448442    2.24566488091435   -2.46511149509952
H           1.02994037921620    2.59606198355436   -1.54553528277618
O          -0.38996021262083    1.42185694349809    0.98388503307799
H          -0.61925948055371    1.94730091298474    0.15923459186433
H          -1.23824498762399    0.70027490098428    1.05320456491887
H           0.42719338868292    0.86174981195701    0.66436392179425
O          -0.56884335221168   -0.30925776836311   -1.82025999715035
H           0.21451077860114   -0.48717227560402   -1.27777235819421
H          -1.25411180726704   -0.93473148697156   -1.51164153478393
H          -0.79526665185098    1.27222643962283   -1.68460673703750
N           2.32124896992868   -1.57896388396345    1.67013236595597
H           2.05761666717692   -0.35670051201977    0.52265286365727
H           2.45830619999928   -1.38104071598200    2.65357743359163
H           1.33968350621952   -1.82792384944418    1.54245960246087
H           2.87284591441689   -2.39598469041876    1.43974695000739
