    26
        -50.43974346  Gyration_radius:  2.62991236594 Dipole_moment: 1.940
 S           1.83869390642170    0.77583767545903    1.47537479602534
O           2.40383056194770    0.46981675552680    0.13900696659565
O           1.51563038059879    2.17787211774891    1.59536869497438
O           0.78853607285762   -0.14313050771216    1.81527721511816
O           3.03502124686273    0.51068424783293    2.49160026169283
H           3.57212347817989    1.29301201632481    2.40391121953735
O          -1.34414328850553   -0.80065363796715   -0.13016129666276
H          -1.96259195016913   -0.94429404348514   -0.86686076307116
O           0.05667133483609    1.19222262671179   -2.53107490071485
H           0.69099673641488    1.80710349703967   -2.90163635372682
O          -2.41104038789205   -0.27527571212401   -2.56135677436276
H          -1.59079885532990    0.19819085745637   -2.76200394905598
H          -3.09430283588113    0.39451829738456   -2.49991724866576
O          -0.51510929615679    1.85790371840685   -0.08685307434127
H           0.20218856893225    2.09762792737286    0.53292366659888
H          -0.18430488249633    1.55254478778744   -1.62533666668051
H          -0.88783369896480    1.02839095573522    0.24872032521494
O           0.91896303811729   -0.88430212228773   -1.23488584456579
H           0.03493342328162   -0.94840099281878   -0.68849706648924
H           0.69037481245801   -0.18878036444327   -1.92249028691496
H           1.63883021161606   -0.34470333760584   -0.57598368532180
N          -1.11960701390888   -2.29611663799475    2.03440331400276
H          -1.46322216262025   -1.46101670490079    0.59839578467072
H          -0.69527401314228   -3.21536449680356    2.04018852902938
H          -0.37449707637600   -1.61452051698167    2.18271723155549
H          -1.74406829120458   -2.23916638582980    2.82916990559783
