    26
        -50.45450930  Gyration_radius:  2.45163049034 Dipole_moment: 5.294
 S          -0.78915709142070    1.70301001099535    0.91526188485218
O          -1.74872593194032    1.18199754061438   -0.16799374155708
O          -1.54941843788789    1.99441995660608    2.07626637747523
O           0.29360165582366    0.75277981905969    1.09434688655673
O          -0.18571134372634    2.98715293915541    0.30580499816260
H           0.75189690747376    2.78746390594990    0.00220627129532
O          -0.86762638813972   -2.44654474399031   -0.30072977437373
H          -1.44285099301997   -3.18154610919563   -0.51677004383957
O           2.03281712517301    0.01356511378024   -1.88150310445045
H           2.71462234303493   -0.31179805196228   -2.47035875765355
O           2.19757765341228    2.21070845365366   -0.28665913475843
H           2.27480028806632    1.70366947681945    0.52839117034966
H           2.15327597116767    1.54356315699958   -1.00089982042873
O          -0.68365189440654   -0.27961113508380   -1.92961843250432
H           0.26562985341082   -0.08764069395232   -2.03945587779183
H          -0.74060518602960   -1.13291051659785   -1.45115165123521
H          -1.30014949014910    0.64623607826065   -0.92289353082481
O           1.65108049503477   -1.42442280627731    0.25651843913107
H           2.00883702238710   -0.59769447935594   -1.09034507597937
H           1.23195326344161   -0.68524475256406    0.73109463322849
H           0.92118605278928   -2.03357164230706    0.06888695402843
N          -1.90854182815343   -1.05321536558285    1.72112842299112
H          -1.28354253196198   -1.97414227047942    0.47754796677615
H          -2.23123415786112   -1.42792903706280    2.60555600515965
H          -1.12625193086053   -0.43647679894963    1.91656775782551
H          -2.63981143567167   -0.45181804853517    1.35880116758159
