    26
        -50.45450923  Gyration_radius:  2.45161815565 Dipole_moment: 5.292
 S          -0.29629809486595    1.17113182921475    1.70282663723951
O          -1.51200350025206    0.26102382803627    1.45960727712382
O           0.04118240032894    1.09966025939611    3.07825155451752
O           0.76236429883848    0.81522810728804    0.77554094841677
O          -0.79341362512622    2.58281761657623    1.32226284805648
H          -0.41002276846202    2.82646232472627    0.42521354735034
O           0.01449494850990   -2.57800218356126   -0.43065733481994
H          -0.26173222290172   -3.49534821307286   -0.43086667616725
O          -0.22647931899877    0.91289819915533   -2.60547786397959
H          -0.17075310382777    0.92487081994697   -3.56163145130908
O           0.39745219431693    2.96307672684753   -0.92985525279591
H           0.03860303039293    2.34137541573830   -1.59455453564785
H           1.20847500894823    2.55259315175503   -0.61182153071142
O          -1.76258867372536   -0.57910279610276   -0.90788215441819
H          -1.65169185540192   -0.02202326825589    0.48055991777149
H          -1.34793110731707    0.02078190317241   -1.55461894982294
H          -1.17550623276038   -1.36069175911588   -0.83816258512037
O           1.59479647686617   -0.52093071516700   -1.41684911834301
H           1.21337501974862   -1.39651458826421   -1.25311312480144
H           0.54034190361333    0.36490561219426   -2.27126884639229
H           1.47921679932807   -0.04659387927881   -0.57488287045040
N           0.49640705260061   -1.78461732681083    2.06980125135887
H           0.21086759472928   -2.33645792530790    0.52055059799746
H          -0.38787955125267   -1.58220070485141    2.52225644104589
H           1.08561931000501   -2.25537323752705    2.74658603110721
H           0.91310399667689   -0.87896918667874    1.87818526277846
