    26
        -50.45450927  Gyration_radius:  2.45163156535 Dipole_moment: 5.293
 S           0.44612679356011    1.86005890136179    0.83755190639027
O           0.20769852734114    2.52404047386374    2.06762560759065
O           1.61914930777401    0.88579423486119    1.03796014837070
O          -0.68536026272188    1.14060901206764    0.28121690947256
O           0.94737502259261    2.84512389412470   -0.24092442352152
H           0.50656164304689    2.61473816740795   -1.11487017354641
O          -0.10582569208387   -2.42737560268359    0.96229619309354
H           0.14874585789237   -3.22878290522315    1.42139242986926
O           0.05819867386906   -0.56931496162647   -2.71100264285151
H          -0.06696789655923   -1.04660181162938   -3.53197740003266
O          -0.39293235117930    2.08212515927162   -2.30377732597109
H          -1.18812639784225    1.94035734882670   -1.77935753673242
H          -0.09817012310252    1.18803730520846   -2.56984159791359
O          -1.70490443104366   -1.08116151397762   -0.86302301776598
H          -0.69494015117571   -0.82257847384062   -2.10380066799152
H          -1.33327844983251   -1.76885662301380   -0.29039643017769
H          -1.51767568542216   -0.24944463939522   -0.39349178823738
O           1.67812197629280   -1.06265834124757   -0.56623755039538
H           1.68105145778385    0.13319449853936    0.33940339293916
H           1.07959069848593   -1.66244101351143   -0.07386108067496
H           1.23193619392516   -0.85753698129226   -1.40821298269515
N          -0.38765101900967   -0.43743772690209    2.71562242777564
H           0.53130049916329   -0.08370909662332    2.95659213843345
H          -0.79352305752796    0.26433751654532    2.10459481681068
H          -0.22725897609077   -1.72121298955513    1.66117658738666
H          -0.93924213812938   -0.45930383155831    3.56534204036363
