    26
        -50.45450920  Gyration_radius:  2.45158288903 Dipole_moment: 5.292
 S          -0.40321079071146    1.26277772158791    1.61317190361294
O          -1.62975871131411    0.39152910033599    1.29405171497034
O          -0.20030950651438    1.24361176670863    3.01648583364223
O           0.72153084439779    0.82081295446571    0.80880814251589
O          -0.79897325664744    2.67335736695497    1.12517429550077
H          -0.32292470088678    2.85788232808954    0.25898905538890
O          -0.05985850851253   -2.59414261796203   -0.31301324755772
H          -0.37612791023753   -3.49836017847835   -0.29924933615321
O           0.06094454916727    0.79406145747130   -2.65320681577821
H           0.20703628292499    0.75732150503470   -3.59912731866433
O           0.61367170373602    2.89629846974032   -1.01723039055072
H           1.37183993511196    2.46917714245843   -0.60470489154602
H           0.29185135139165    2.25839049230850   -1.68545091277745
O          -1.69320350334808   -0.55102799640233   -1.04693593726273
H          -1.15068423617263   -1.35123221690098   -0.88642309844907
H          -1.68894549117962    0.06738343428844    0.31941086028064
H          -1.19307299475382   -0.00028532423369   -1.67677691684882
O           1.69666344521388   -0.65189412817027   -1.23209846879314
H           1.26308880556969   -1.50266581378381   -1.06745119596896
H           0.76780521653350    0.23286618878283   -2.22262829617602
H           1.52338157129335   -0.13326764278482   -0.42695124269429
N           0.22028457271470   -1.70091847653603    2.18449129215800
H           0.72195614900211   -2.16189430974960    2.93455795942224
H          -0.69256363568631   -1.44174193463577    2.54122164695820
H           0.69277576856974   -0.82287789107026    1.99382777700954
H           0.05680303032626   -2.31516140752546    0.64105757777282
