    26
        -50.45932267  Gyration_radius:  2.4074185096 Dipole_moment: 8.392
 S           0.97961039927022   -0.55800098672505   -0.56799429891476
O           0.99612645362144   -0.47113560894167   -2.08102551719829
O          -0.03447063034930   -1.52710708494143   -0.13096280339753
O           2.30571934575585   -0.96195830235775   -0.11464023383651
O           0.64061945283781    0.77427861572575   -0.02579002442062
O          -2.51865723756014   -0.78722370901113   -0.89253110206015
H          -2.63943591306640   -0.09246782107047   -0.22582640193846
H          -1.70501684926125   -1.24715431290967   -0.61799236451268
O           0.96806411662583    0.59293877053595    2.58411913152923
H           0.85386066683968    0.72929461834988    1.61224511286985
H           1.64590123085344    1.21380358491484    2.85642257115016
O          -1.86583253648042    1.05802135437025    1.03524138429759
H          -0.99574526561022    1.03198336806557    0.60130046572112
H          -1.69131600705874    1.07650888701493    1.97748564659624
O          -0.16182957587085    2.58594705146431   -1.85747733786165
H           0.16932412930056    2.02642359472464   -1.12967653075328
H           0.60191709683250    2.81727099151229   -2.38863815578627
O          -1.21544149310316    0.33062593070914   -2.87470195468104
H           0.04380366037849   -0.17940041717203   -2.47285518589646
H          -1.85711690524560   -0.07699351673507   -2.23100461968464
H          -1.10737166446366    1.26946706529792   -2.61509259425711
N           1.32559597824259   -1.96502694859620    1.97198635867362
H           1.18105482166075   -1.10274956241166    2.54346991532182
H           1.54370361682019   -2.79655758254880    2.50945841515082
H           0.49748223782892   -2.05545312408360    1.32105949792676
H           2.03945087120054   -1.68533486518583    1.21342063596133
