    26
        -50.43975755  Gyration_radius:  2.71290722771 Dipole_moment: 1.606
 S           1.55531419553100    0.33000064091141    2.09178232689267
O           0.53866193731492    1.46178008489612    2.22327157039128
O           0.94046601769611   -0.93025461881922    2.38823815592516
O           2.28311073225338    0.43045637446229    0.86975709149495
O           2.54278958347085    0.67255143518295    3.27202561948608
H           2.06114892399309    0.45629231942062    4.06656746820338
O          -0.58028263458906   -1.10622249078556   -0.91444642068761
H          -1.28623261062927   -0.99264437698760   -1.57375383248955
O          -0.34052920064415    2.26251045340802   -1.86677881024106
H           0.02653096136135    3.13103560040635   -2.03168757668302
O          -1.96349091827430    0.16613714276529   -2.89532525372551
H          -1.55812969167952    0.01844345447326   -3.75150297428314
H          -1.58258806532698    0.99232587204454   -2.55891159755826
O          -1.11863120883646    1.08952226610206    0.43253824957964
H          -0.91452924368680    0.20416992502920    0.02512971234714
H          -0.20870995358807    1.32803206125893    1.47454231925499
H          -0.94986934125426    1.72130220489874   -0.29647839827917
O           1.51938788277148    0.42899958206992   -1.74338603552094
H           0.91165786807768   -0.31587838590664   -1.59837701266412
H           0.42705360181090    1.62106633653896   -1.88136767907655
H           1.99069843224715    0.50856794519891   -0.89832796040559
N          -0.91378703679079   -2.81036518537689    1.11034178266030
H          -0.54904215293818   -3.75455777976604    1.09085217559162
H          -0.79942145557120   -1.85006061586428   -0.30201458010169
H          -1.78056517336380   -2.82444641090639    1.63367296317435
H          -0.25101142774627   -2.23876386297291    1.63363869906881
