    26
        -50.43975736  Gyration_radius:  2.71253395664 Dipole_moment: 1.609
 S          -0.63239764009950    0.66775167323994    2.45993207962967
O          -0.13930756340594   -0.66565155216821    2.64203926611462
O           0.51395789101647    1.61657615316045    2.11757417255731
O          -1.73018589266375    0.84197940464862    1.56666468378231
O          -1.06741358052277    1.21663682774986    3.87246353610389
H          -0.36702365219192    0.95478196920894    4.46487879889489
O           0.04795269389136   -1.22160591745692   -0.94827606353370
H           0.47548237346570   -1.25552086316285   -1.82118089202496
O          -0.02741076180642    2.10144630976136   -2.07369691069571
H          -0.29829959246849    3.01338055307579   -2.17991843395713
O           0.78414467165230   -0.27886281774712   -3.40260710837676
H           0.07375262114671   -0.38683202621256   -4.03735120651887
H           0.67919384119289    0.61245890137127   -3.03479320677253
O          -1.96307810555828    0.61485836215118   -1.13588632224050
H          -1.45826823406908   -0.21605324013220   -1.14106262737142
H          -2.08315119464237    0.80424855032847   -0.19121434313877
H          -0.83322203819928    1.59937985276101   -1.75841651238214
O           1.34797580701646    0.89952194225033   -0.09160927486411
H           0.88510442907901    0.04668207574006   -0.31532357315191
H           1.02135345149125    1.52261333674386   -0.77304732297742
H           0.91625117820118    1.32829496218704    1.17234260867893
N           0.83249087761777   -2.88284234387600    0.98519776948089
H           0.49467411645913   -2.18680812722527    1.64950223094078
H           0.34934481753594   -3.74997092036810    1.18411877601506
H           0.36102723852733   -1.96915464263143   -0.38298131968894
H           1.81705228679641   -3.02730841170522    1.17265118955567
