    26
        -50.46564542  Gyration_radius:  2.53833635064 Dipole_moment: 3.630
 S          -1.26421707918818   -0.94469092108921   -1.31608624445488
O          -0.74271029710972   -2.18940878458917   -0.77540520040991
O          -2.34884074470682   -0.39941455806697   -0.51629731103084
O          -0.22228319412228    0.03033153010854   -1.59259318622593
O          -1.88389840510575   -1.29537509425965   -2.73707052271670
H          -2.56507193390442   -1.93632656261282   -2.55534608993387
O           2.95510966281657   -0.42358593938219    0.60376479655459
H           3.57103529269307    0.17721415078942    0.18192547829963
O           0.01116810788590    2.84809551175482    1.08977384786461
H           0.61084224521693    3.47063474296280    0.67613370191751
O          -1.10390556430778   -1.23019887218298    1.64596999372168
H          -1.80747566060750   -0.77374646784009    1.14840933001420
H          -0.81017704471794   -1.88530910799458    0.98596289430964
O          -1.58174362671810    2.16412239535522   -0.86536111437365
H          -0.96802001550579    1.55091912026731   -1.31567870178687
H          -2.28567004698143    1.56445991873181   -0.58217186820589
H          -0.67243485628130    2.63834254022409    0.39336365006844
O           1.81731572565842   -1.62490471221983   -1.41884733048942
H           1.22137057873873   -0.89308745412721   -1.67325212051688
H           2.57015866483423   -0.96938080528817   -0.13781897398801
H           1.18723098444508   -2.30548641295906   -1.14498180149199
N           0.87022484028598    0.49102670923315    1.98953929322551
H           1.10862204449210    0.55846363059209    2.97387557825981
H           0.07280766836784   -0.20725493376967    1.86916684485811
H           0.55465332625615    1.43267153542839    1.63197726238180
H           1.70590931755926    0.15188886092824    1.44104778414413
