    26
        -50.43975743  Gyration_radius:  2.71287734789 Dipole_moment: 1.607
 S          -0.64013485119362    2.18413167395825    1.31149566463201
O          -0.54671788302719    2.65362623810391   -0.13856983236965
O          -1.81304962413053    1.38290344475194    1.50204819727264
O           0.60082956963864    1.64270652873635    1.75882886588877
O          -0.86717586317516    3.55378030414043    2.05824277490074
H          -1.76108915006062    3.80721817458864    1.84194023282840
O          -0.20966178673812   -1.53299867529260    0.02556677272003
H           0.01982034773347   -2.15736299977395   -0.68394412445519
O           2.43267289211356    0.03126991126611   -1.67419023349450
H           3.18598706436295    0.59548094463762   -1.84879552903449
O           1.31684832189629   -2.56606821607451   -1.98891756494587
H           2.02186109554797   -3.11347713008071   -1.63895097891448
H           1.69386681265734   -1.67800671250416   -2.08878460386136
O          -0.19149134252019    0.61859457917940   -1.48907916813206
H           0.75047953149890    0.57079099991141   -1.75306183259472
H          -0.30176097769804   -0.15957925592101   -0.87776492633479
H          -0.40969081252319    1.79806457493721   -0.76045892164661
O           2.13482345190937   -0.42814311764433    0.88239105807475
H           1.35783003855226   -1.00472584937748    0.78705471255824
H           2.42033482245973   -0.13023099540611   -0.68693985681744
H           1.77915319232577    0.36709443968032    1.31108551066059
N          -2.73662725746855   -1.32500706842264    0.85321440164946
H          -2.50897334876784   -0.37495393253637    1.14545108825219
H          -3.08236154392343   -1.81702507053704    1.66765134383765
H          -3.49467467131216   -1.26260235468268    0.18477051250602
H          -1.15109804657992   -1.65548046506099    0.29971641938457
