    26
        -50.46564542  Gyration_radius:  2.53845029398 Dipole_moment: 3.632
 S          -0.71380312807898    1.68953437624886   -0.92747906296536
O           0.66623350648682    1.95105530414920   -1.30246169663101
O          -1.38097718888012    0.78439613930862   -1.84901387735914
O          -0.85366153846543    1.28397672068493    0.46135163151337
O          -1.47889489380915    3.07911081282104   -1.02697908045326
H          -1.38519016990063    3.34522496600587   -1.93701941521493
O          -1.40903416150953   -2.54786365594746    0.90440209999300
H          -1.64187414953229   -2.61177822818069    1.83176916527217
O           2.33447031191676   -0.40917877162524    1.91401164324104
H           2.12344972683846   -0.45475360708137    2.84767049568081
O           0.87259926746586   -0.54851616751922   -2.09245395653122
H           1.19661652358947    0.35193113298634   -1.90482309571018
H          -0.07458278948705   -0.37278037485750   -2.24416459061952
O          -2.77535495623720   -0.47583565653351    0.08734650646513
H          -2.19394880954002    0.21255197084759    0.46625956185667
H          -2.67832026302250   -0.31453686272249   -0.86126958762011
H          -1.98840962963833   -1.82292587918075    0.53682885511119
O           1.55695215354294    1.99446548645368    1.24527767704371
H           2.13888605569205    0.53192010742664    1.64548463350982
H           1.74830904303499    2.20753297224121    0.32157662887711
H           0.59844192607601    1.80607549275658    1.21144487026815
N           1.07225068503639   -1.94651657313403    0.14001592703807
H           1.00175904010038   -1.39495248150142   -0.77033213918931
H           0.09840907258285   -2.18982402286261    0.46661423075844
H           1.60256983776010   -2.79608342611717   -0.02524125239824
H           1.56310453797732   -1.35222976466842    0.86118383805929
