    26
        -50.46564547  Gyration_radius:  2.53841625857 Dipole_moment: 3.632
 S           0.22230392464889   -1.99532137792236    0.43829009962615
O           1.48421488040296   -1.91363321435925   -0.27881910029857
O           0.34082603190740   -1.57984446399796    1.82639166422085
O          -0.86607703383449   -1.33000525399734   -0.25849308592455
O          -0.18488398538104   -3.53154435966931    0.46107123866594
H           0.52665767529940   -3.96620649202367    0.92216281485053
O           0.32505254535175    1.53495113958751   -2.61436162620222
H          -0.47461447052387    1.74032029127055   -3.10087145244139
O          -1.77475370661916    2.14542679006433    1.23713162264816
H          -2.58936907884493    2.35163015256428    0.77651973647144
O           2.05336067741523    0.26829946213791    1.07352965384623
H           1.49109469065309   -0.21395799993504    1.70774666836816
H           2.20076860627403   -0.42156135430246    0.40013873125345
O           0.34872585902888   -1.07775780830945   -2.58024975649892
H           0.41650285638504    0.54229349284844   -2.66481027850861
H           1.13955284614180   -1.43940555917333   -2.15711737199388
H          -0.32328681830379   -1.19741076490597   -1.88053234042633
O          -2.07239181951993   -0.37105726180945    1.87585175419255
H          -1.89446152365959    1.21600986068770    1.58043761877358
H          -1.88343191733300   -0.74314880502452    0.99192935427916
H          -1.33390633298286   -0.71584139693418    2.39640881539157
N           0.56843227932504    2.15204272662838   -0.03304526806123
H           1.18045490808616    1.40414767490477    0.41870244082550
H           0.45158885557631    1.92333094556696   -1.05689080630759
H          -0.37003761879673    2.16169918521023    0.45002510623423
H           1.01767765930165    3.05654439090322    0.06885375702707
