    26
        -50.45376638  Gyration_radius:  2.45998761181 Dipole_moment: 4.205
 S          -0.10016945008186    1.93991005749144    0.39195285107680
O           1.39400034587123    1.65239923765343    0.13038731137591
O          -0.85685328658840    0.76763168540819    0.03976732119226
O          -0.28900236385365    2.41139777399955    1.72350546605680
O          -0.41810483128820    3.07397906398144   -0.60675632080095
H          -0.21816871351295    2.66084859766682   -1.48824381469079
O           0.31066438061118   -2.07558055312197    1.39344852952910
H           0.79285930188598   -2.66680564648059    1.97329575106176
O          -0.00255311658876   -1.00971596057658   -2.55228110158087
H          -0.16984099282898   -1.50628955307570   -3.35430935018145
O           0.41369655879325    1.68591724862699   -2.63729438451892
H           0.13051590859458    0.74878590475454   -2.61234363042583
H           1.35594535780208    1.68508578333397   -2.44873326159864
O          -1.61352278200463   -1.69948529456288   -0.60974569889984
H          -0.68990647616991   -1.29765037769318   -1.88651786383420
H          -1.04530828685902   -2.12781986560674    0.04702764446050
H          -1.63377237396286   -0.77106101516156   -0.32354827097036
O           1.74581517869796   -0.76697865752523   -0.46416845734771
H           1.25783985180449   -1.26780392078218    0.22774343457540
H           1.23756055615653   -0.90122291004176   -1.28449780575387
H           1.56308087230763    0.65507881643599   -0.09557728234426
N          -0.65542105718520   -0.17739422615227    2.97642768143146
H          -0.28151921628437   -0.09239628059962    3.91465072477354
H          -0.50660277818355    0.71803658152674    2.51156769270504
H          -0.06266585977635   -1.34524198840071    1.97395205695300
H          -1.65856673735847   -0.29362449109595    3.06029076775643
