    26
        -50.45376603  Gyration_radius:  2.46038141044 Dipole_moment: 4.227
 S          -0.14093801099673    1.49447914562339    1.29525112304584
O           1.37162913118355    1.28980954633890    1.06304723034144
O          -0.85961224635001    0.69312590251216    0.34024087575528
O          -0.46902081996718    1.25751120528675    2.66168064621430
O          -0.34651793143585    2.98948027027051    0.96736182229414
H          -0.05420681071914    3.05540135480836    0.01974607109719
O           0.15324906950975   -2.50616751624184    0.19109965890294
H           0.56871284417199   -3.33464429816972    0.43471300995247
O           0.25718747236902    0.38897427554726   -2.70698703603493
H           0.17231697633141    0.36543291010051   -3.66095848744663
O           0.69369840687588    2.74310562381068   -1.39868997322079
H           1.61037939808199    2.59504886543700   -1.15142257890374
H           0.40520509254677    1.93488616905872   -1.87047527765135
O          -1.55087522768646   -1.08134506528034   -1.51836909927551
H          -1.05588114513507   -1.80881735875796   -1.11402035594474
H          -1.59964492108135   -0.41723299583134   -0.81070779242745
H          -0.49702769489299   -0.15237533085944   -2.33712247699974
O           1.77808124117238   -0.52844140572639   -0.62837133398190
H           1.56038892349840    0.53003403646241    0.38405996632279
H           1.21962214018125   -1.27958371998922   -0.32592859342053
H           1.35823785521796   -0.21112171990143   -1.44832111405459
N          -0.94537646614832   -1.59335130448917    2.42788004973395
H          -0.26978700688008   -2.14053741383551    1.02597257171021
H          -1.95218828049209   -1.69397755275219    2.37195221286724
H          -0.64994515526280   -1.99741512822633    3.30924943784767
H          -0.75768681409656   -0.59227850519211    2.47911944327290
