    26
        -50.45450937  Gyration_radius:  2.4517479045 Dipole_moment: 5.288
 S          -1.25135553130040   -1.45818506680674    0.81774710596303
O          -2.06464437670951   -0.21362107537238    0.42368292931283
O           0.16397219712282   -1.17458959426369    0.66347798398504
O          -1.65980739232340   -1.86076991956624    2.11461215402267
O          -1.63249481028809   -2.51543788969968   -0.24118774132584
H          -0.87343319275255   -2.60194054371318   -0.89508491968043
O           1.04255696020080   -0.06868241395330   -2.56522737914485
H           1.57932944636830    0.16183302413635   -3.32429763269405
O           0.51177644086792    2.48632415026564    0.62178912341253
H           0.37447077063811    3.40841276939161    0.84255432716049
O           0.49248829599352   -2.58563440369854   -1.69482416502358
H           0.59521093002613   -1.73100681443024   -2.16001394039989
H           1.06724541155336   -2.52502029552001   -0.92458227480586
O           2.14121006329919    0.41752279806168   -0.25399513809346
H           1.56037760350378   -0.21557325058699    0.20323329856706
H           1.58401730004765    0.13018622669557   -1.74834881068013
H           1.82703232515044    1.28606803671256    0.03903299400709
O          -0.97511234777943    1.27348717017942   -1.30143270465697
H          -1.65187560798491    0.35197254523584   -0.32976599936140
H          -0.42578408053899    1.80943514925658   -0.69193070431092
H          -0.35563191795699    0.78114042891349   -1.87045062703060
N          -0.44259347708284    0.94210407334509    2.57556365953076
H          -0.23080097667498    1.02375817052675    3.56316235635793
H          -0.09204534733420    0.04306402560054    2.26011510742658
H          -1.45045786660061    0.88442972673921    2.48257566152863
H           0.16634918058360    1.95072298252201    1.39359534592765
