    26
        -50.46564547  Gyration_radius:  2.53841435982 Dipole_moment: 3.631
 S           0.09908200102027    2.01425880515052    0.39600546627506
O           1.22167910019819    1.69111751359065    1.26137578101356
O           0.49280735859573    2.17116796971117   -0.99462383648857
O          -1.02281636711520    1.10570949171532    0.56532707692559
O          -0.44488563811454    3.42957603896641    0.87263851059873
H           0.29028274729964    4.02491421937958    0.75896576561864
O          -1.32024695048068   -1.54037050900226   -2.27319050499518
H          -2.17769434500474   -1.92796736400485   -2.09178111626009
O           0.01997388330111   -2.41931632333671    1.85435038451905
H          -0.82774127177515   -2.81541329294267    2.06123698752991
O           2.22280399665040    0.21726994915321   -0.67246833223531
H           2.18523295024469    0.59567421759394    0.22558677366631
H           1.73284157940070    0.89405424782420   -1.17534923663260
O          -0.20374750252796    0.00218083323810    2.81062720891091
H          -0.75476153853877    0.36783822384778    2.09074252313109
H           0.00509195139170   -1.52199878456462    2.29111247800740
H           0.60890490129905    0.51807471726211    2.71757212765927
O          -1.74723558112295    1.01905293783283   -1.96409529283179
H          -0.96740059850434    1.55590428019183   -2.16125535892668
H          -1.46907652401739   -0.55357050996987   -2.25834574761502
H          -1.74995286252464    1.02403805661341   -0.98664210979369
N           0.76103716543007   -1.98299324148505   -0.66814902344329
H           0.44890496125312   -2.17151929912672    0.32245628634687
H           1.30674804009629   -2.76648875370996   -1.01259050470561
H          -0.07550034775938   -1.82699913004828   -1.29267164638864
H           1.36566891133141   -1.10419428387917   -0.67683463989684
