    26
        -50.44781910  Gyration_radius:  2.50182085903 Dipole_moment: 4.219
 S          -0.81613121603265    1.80126525152601    0.15758434082593
O          -1.45993948571103    0.63024401049426   -0.41168129205135
O          -1.40529634116563    2.23836279696949    1.39574770505262
O           0.63662613032905    1.62773749733883    0.22969203173163
O          -1.01934098236625    2.98490598746980   -0.88418140339555
H          -1.88884954750789    3.31260962302411   -0.67732871993611
O           0.83283379218966   -2.19864623429476    0.27266769101749
H           1.45952796305209   -2.70674618031113    0.78953590735636
O           0.83407713630851   -0.52574938715273   -3.21549866286125
H           1.22367116947515   -1.17531790449129   -3.80305513928837
O           0.56260648942353    1.39623030304976    3.02307988031908
H          -0.22257406857137    1.83032087129945    2.64310421779705
H           1.26736104560121    1.61198520626240    2.40614994275987
O          -1.06745249022164   -1.60762780986462   -1.81363286859148
H          -0.59368136879960   -2.11274484503654   -1.14108786402991
H          -1.37019860499188   -0.79744997589407   -1.35820758519037
H           0.00498499218774   -0.93524482081247   -2.83561281271628
O           1.84268251019841   -0.19865078978209   -0.90772411732251
H           1.34189098218629    0.62081201677902   -0.45482644769540
H           1.46925730355056   -1.04114055582126   -0.42557921177960
H           1.51128746317491   -0.25026538189888   -1.88062669220965
N          -0.67322229813618   -0.88608145971764    1.85378069072980
H          -0.14410377883236   -0.24046920835887    2.44712441990249
H           0.20537688268540   -1.70778914663498    0.96308341070311
H          -1.34761227741615   -1.36307155115232    2.43863598571413
H          -1.18378139061109   -0.30747833298830    1.18885655315750
