    26
        -50.44483757  Gyration_radius:  2.51312233348 Dipole_moment: 4.674
 S           0.74791162581111    1.96075799643509    0.56541312485571
O          -0.53290817482642    1.47712347725121    0.09045372136961
O           1.02956762549037    1.63469934364053    1.94147525946715
O           1.84030174245525    1.55241751298210   -0.32989576190423
O           0.69330956532344    3.53873575743795    0.47086037418899
H           1.45818329534225    3.77653784823381    0.98378306085520
O           0.32990144422127   -2.09935261412910    0.14142769578647
H           0.70748698453877   -2.93795754611287    0.40807080303198
O           0.33256688136023   -0.54965176468985   -3.30349929778562
H           0.19942670022973   -1.30806705674851   -3.87405329661244
O          -2.69099568448944    0.41911091901999    1.36345855604761
H          -3.14498892807462    0.05577880320903    0.59942020654207
H          -1.99550596987911    0.99387568142351    0.99835370352931
O          -1.44812688530086   -0.55613209924482   -1.39137759678895
H          -1.08368187738906   -1.26668981835039   -0.84464672538111
H          -1.19468960614002    0.26705435770784   -0.92851566483985
H          -0.46771126832746   -0.48570059043707   -2.71301257734533
O           1.88838275059826   -0.71065104537782   -1.28163723290605
H           1.90416105368606    0.27955279609314   -0.86164489901782
H           1.27977378600328   -1.28810914972826   -0.66474089508360
H           1.37990835858881   -0.61995604327716   -2.16424806856207
N          -0.25376970478816   -0.81655083312519    2.23410419417852
H           0.09260421845073   -1.56556005003561    1.05485816024688
H           0.27855442099862    0.05910169005714    2.21702711983908
H          -1.23748143185583   -0.55171449429005    2.15536634524156
H          -0.11218091201831   -1.25865305794651    3.13319971104275
