    26
        -50.44781905  Gyration_radius:  2.50180024751 Dipole_moment: 4.221
 S          -0.15169130381870    1.61606858921801   -1.14039312815276
O          -1.22714094126924    0.68325427333171   -0.85193098683929
O          -0.34467953832810    2.91691028039985   -0.55577549257055
O           1.15679345345074    1.02865325278443   -0.84263314305023
O          -0.13922319609435    1.82398974348045   -2.71651901631733
H          -0.80877681458277    2.48608796724340   -2.85618179271059
O           0.11533244588238   -1.61670414739708    1.72510490083565
H           0.62506057817211   -1.85302395539596    2.50123990001611
O           0.04707654601533   -2.71565129156723   -1.98304620940493
H           0.09848990228050   -3.67258583447259   -1.95957539142216
O           1.49744518151072    2.69016448646575    1.39006697362968
H           0.84060706145871    3.02051046507726    0.75078270060948
H           2.11568629241242    2.19097864232307    0.84929386683082
O          -1.82655275835410   -1.87704013317658   -0.39010701988728
H          -1.76814865869137   -0.92647405404576   -0.61020529639344
H          -0.79015133273282   -2.45603162150136   -1.50235973721359
H          -1.43082302897800   -1.95751641057815    0.48675035564044
O           1.49325683332955   -1.37167447344855   -0.38557504145041
H           0.99851853135145   -1.91280082471062   -1.10778793378576
H           1.36984858968691   -0.34573542382352   -0.63018778068438
H           0.95872303039137   -1.50310085874971    0.49678590709422
N          -0.58945706148953    0.82474647380970    1.90905485799521
H          -0.19066814718996   -0.61730956582853    1.86237309343071
H           0.21353630833614    1.45699728972177    1.97429025127442
H          -0.99372214525626    0.97296503796492    0.98592135013815
H          -1.26933982748990    1.11432211287666    2.60061381238619
