    26
        -50.44483774  Gyration_radius:  2.51309700858 Dipole_moment: 4.677
 S          -1.51689899975683   -0.72911008958513   -1.37497479058763
O          -0.78898047199868   -1.89353010766285   -1.81478160258654
O          -1.48558904795812   -0.51504419883045    0.05789356638549
O          -1.11131225475141    0.48001232943937   -2.10656360214917
O          -3.03311546264881   -0.96483543072590   -1.75891362574480
H          -2.94480836311718   -1.29417073716218   -2.64684230789871
O           2.08125254646993    0.36586981656076    0.26647816849241
H           3.02446673589567    0.37680945434448    0.10160770546157
O          -0.26450029471189    3.31822129590548    0.49262862158115
H           0.26730836915080    3.97323437159004    0.94714891629253
O          -0.66604538423320   -2.06712979549504    2.13554260415912
H          -0.63033900926504   -1.39020369180457    2.81550125878530
H          -1.13725707798852   -1.65591245464724    1.38974447234599
O           0.77417754884091    1.83960433146604   -1.31540616726609
H           1.33339234843308    1.21322495506344   -0.69956589675671
H          -0.04141352483580    1.25085499719971   -1.69694766181927
H           0.34158616125277    2.52512694965450   -0.69192780195044
O          -0.17749394395883    1.05193466450624    1.79004888769872
H          -0.35784268472589    2.54065538329351    1.10900675743133
H          -0.76979244465055    0.51677038081739    1.22532785713222
H           0.71523125336425    0.76904590249120    1.54585803965476
N           1.28589185185415   -2.01728272875568    0.03498658340196
H           1.76270071275665   -0.66466501244125    0.15658887401552
H           1.96659818830884   -2.74355099934587   -0.14685143110264
H           0.78807866243733   -2.24911397914455    0.89668065508611
H           0.58470457583547   -2.03681561673101   -0.71226809006252
