    26
        -50.44781907  Gyration_radius:  2.50183931455 Dipole_moment: 4.219
 S          -1.85222942991236    0.69217251414554   -0.16233902189050
O          -0.65562762536735    1.36476946749937   -0.63730296375681
O          -2.71814996990292    0.24104662182941   -1.21966973413362
O          -1.52487478475657   -0.35171916009470    0.81176130765824
O          -2.67685979472847    1.76451150120288    0.67293873726582
H          -3.16003151715077    2.23935419692839    0.00413262531166
O           2.09767241226147   -1.07719732239550   -0.20488974699631
H           2.49879246352713   -1.94732879614208   -0.20857955788101
O           1.58577216544196    1.72359225018255    2.41387478068572
H           2.42825504411507    1.79930091250258    2.86496316231483
O          -2.16912661825682   -2.38295558015498   -1.01020645830390
H          -2.09378432370916   -2.36739243876842   -0.05214087620477
H          -2.56310299810295   -1.51897339281777   -1.22847160558166
O           1.93442361522800    1.80125257562413   -0.15972489339420
H           1.74983985878623    1.93607193144039    1.45088164061340
H           2.26603884584257    0.91935880258393   -0.36999680018266
H           0.99203165029630    1.78810329914173   -0.41898989574437
O           0.70009986632793   -0.58871484556347    1.84973371662823
H          -0.27546075703760   -0.46705398918534    1.44867047327012
H           1.29996985793936   -0.81797283569492    1.03164761818944
H           1.00401059045192    0.33651778930474    2.18230277217798
N           0.18365545117666   -1.04080672777001   -1.88602700691964
H           0.36875558925505   -1.09115058051692   -2.87978451733518
H          -0.22437569524234   -0.12925453523884   -1.68561118492765
H          -0.53916557255196   -1.73209705659786   -1.66590702891817
H           1.34347167606236   -1.09343461144950   -0.94126551194022
