    26
        -50.46047701  Gyration_radius:  2.51743724169 Dipole_moment: 5.328
 S          -1.40693005244222   -0.01345833922779    1.69336600349149
O          -0.76415801481650    1.24035851766442    2.08860566086879
O          -1.51062544498043   -0.08846730187927    0.24461225225819
O          -0.82200796322297   -1.17389384253732    2.31516381940159
O          -2.90086692858616    0.06208606633080    2.23134493285305
H          -2.81410642248904   -0.37420626268269    3.07220190207117
O           2.15264272350496    0.47019144675847   -0.47745983266396
H           3.10616420112598    0.53799514119470   -0.41725160340191
O           0.87727964550288   -3.14202186092740   -1.06948240219307
H           1.46674270443031   -3.54307235724739   -1.70903859657693
O          -1.61850066234283    1.68018078620525   -1.73490646013403
H          -1.22727589104646    1.08237218567590   -2.38481843803123
H          -1.93348778794374    1.08299408423599   -1.02779825077537
O           1.48730034312070   -1.48458355511574    1.04002765768418
H           1.30025340392193   -2.21977497390305    0.42568019566712
H           1.89323317635302   -0.27207838396004    0.16348648121236
H           0.67714975266521   -1.38995530478447    1.58191289002658
O           0.00798674946232   -0.70067472373166   -1.89974946074678
H           0.83504566332685   -0.27906652151815   -1.62724686199267
H           0.45594734378081   -2.37763046416036   -1.51312162299556
H          -0.58171534950005   -0.62588097760176   -1.12475086985549
N           0.27819253558067    2.33517946294927    0.01579996713016
H           1.09954325409022    1.72413186714103   -0.19401701245580
H           0.55175222968160    3.30296495089505    0.14359909356886
H          -0.43989426179526    2.22686713228911   -0.75291093497346
H          -0.16966494737849    1.93944321793523    0.91675151056554
