    26
        -50.45997518  Gyration_radius:  2.57078871363 Dipole_moment: 7.026
 S           0.97398025325858    0.35030515748417   -0.11744404234036
O           0.76278774462463    0.48804677519241   -1.53914216056250
O          -0.40871194663794    0.31331861140337    0.60434001317715
O           1.66439113948907   -0.89000728252035    0.23280586084081
O           1.63905698422225    1.51219569049667    0.48657663353520
O          -3.07703856606708    0.09138313649071   -2.19730911747010
H          -2.42541084363193    0.82709288299410   -2.25063543743506
H          -3.85975056516174    0.46015782694558   -1.78538730012342
O           2.05600536122119   -1.24325023942391    2.76858212421693
H           1.88884216757528   -1.22859390278159    1.78767895849716
H           2.99596305705010   -1.40680215171894    2.86479283172052
O           0.47864984618709   -2.25046071957309   -1.75407594115771
H           0.54224318116271   -1.49376162617977   -2.34752796264357
H           1.04046221059134   -1.99646507804693   -1.00072658846154
O          -1.23630225222874    2.04221918086312   -2.23584856676687
H          -0.46860772894556    1.51220683723875   -1.92298509915681
H          -0.98372452461005    2.37379112357278   -3.09964013186052
O          -1.74727080600137   -1.49123623552510   -0.49406401551661
H          -1.04199196747522   -1.95919187174467   -0.99854764927283
H          -0.99471202606638   -0.44154514035307    0.18010928864104
H          -2.28960077547476   -1.01301384140503   -1.16382809323634
N           0.89104452776582    1.10946167163800    2.84721006083776
H           1.27858854826588    1.41030619203177    1.83795771392860
H           1.37534476139548    0.18722670168985    3.03921460839445
H           1.04618548300848    1.80392373397832    3.57003758148495
H          -0.10042324351668    0.93269256724252    2.68785642072325
