    26
        -50.44483777  Gyration_radius:  2.5132145187 Dipole_moment: 4.679
 S           2.09741442613687    0.23956970151038    0.51770732821413
O           1.10805742081183    1.11504779489644   -0.07777138923893
O           1.93650125548874    0.04515567380034    1.93738544811293
O           2.18661706272823   -1.03814808718242   -0.20429994146502
O           3.49954999210835    0.94058305236861    0.30703199896555
H           4.04831661002832    0.42318153392041    0.88644677409237
O          -0.38562971996583   -0.99835009452409   -3.19062356199331
H          -1.13395937247364   -1.28036347295828   -3.71872694827009
O          -1.75494892215771   -1.16183746291638    0.32593090238424
H          -2.34917550889164   -1.81604577607875    0.69457636231739
O          -0.76099572740437    2.77957067173763    0.98726329279374
H          -1.29028554958456    2.92445153261329    0.19937603175656
H           0.05304710935459    2.34850620217491    0.67289453002599
O          -1.13426162690691    0.86457166049481   -1.51860195162018
H          -0.66419591920000   -0.17102154461238   -2.70981975828386
H          -1.61571808035595    0.31614432214999   -0.88295446242467
H          -0.27769002039869    1.05127050009916   -1.08552215220060
O           0.15355822296131   -2.17254340709982   -0.98500170527040
H           0.00972760132385   -1.80412097565466   -1.92809253614805
H           1.05897194722407   -1.70867186698451   -0.63534472625177
H          -0.62307905988748   -1.78421440604198   -0.41014347021469
N          -0.82552407825557    0.19889865298270    2.23643653921819
H           0.19349994432697    0.09012178961167    2.22531252033370
H          -1.36543744395722   -0.59460099725429    1.16381784871492
H          -1.15609123929219    0.01258453740787    3.17448664375026
H          -1.00826931376663    1.18026049553819    2.01823638270013
