    26
        -50.46126935  Gyration_radius:  2.53119787545 Dipole_moment: 6.041
 S           1.33486693420717    1.78282476754128   -0.53165942747111
O           1.57308596219631    1.20599831669989   -1.83605149896649
O          -0.02299737776829    2.27131711577090   -0.34071998813132
O           1.75607206478862    0.89943941526089    0.54964081588752
O           2.26026654861707    3.07277501557304   -0.43570696913008
H           3.09924407536967    2.75930781307819   -0.75874372298044
O           0.20627408684304   -2.75740185065331    1.86521789158014
H           0.20934812494172   -3.70227042369502    1.70915504719902
O          -1.33615381984564   -1.11497275558702   -1.35378291095243
H          -1.75262581207878   -1.70253697576997   -1.98540903482801
O          -0.38789844859995    1.27859652585231    2.01704880358031
H           0.54548535022699    1.01092057547405    1.93320126006792
H          -0.47482370409227    1.84972585598642    1.22074001499605
O          -0.93223400415272    1.13357819337072   -2.55058284443607
H          -1.02353034824997    1.77880195189253   -1.83088231873064
H           0.04353627382581    1.07747948634625   -2.62346771800608
H          -1.21300259743514   -0.23828742944162   -1.83548722235752
O           1.25672493012714   -1.59271760275608   -0.22515875652137
H           1.57176755377895   -0.69915581973414    0.02230428031293
H           0.75233241224234   -2.35459609390038    1.13431328455390
H           0.50606458811018   -1.44735285039843   -0.81747637563592
N          -1.62202011848995   -0.90881289786792    1.33764533529507
H          -1.62850340611558   -0.94250133600731    0.29651190003067
H          -2.56058712164622   -0.97765046426878    1.71453433291990
H          -1.01147921151334   -1.69953057574740    1.67154401102192
H          -1.14921296520499    0.01702206272852    1.65327180063041
