    26
        -50.44868386  Gyration_radius:  2.55716100391 Dipole_moment: 2.086
 S           1.51298213836680    1.71201406636620    0.47880308228002
O           1.94846514666414    0.83983770744815   -0.61835557372174
O           0.77421464287774    2.85586380411398   -0.01828449720044
O           0.83019054856789    0.96736376371509    1.51270003201318
O           2.83452675137903    2.28743305225051    1.12959983113714
H           3.01674877473109    3.03546244120492    0.57029092060438
O          -0.61267141673488   -1.80615169159126   -0.77937387129518
H          -1.30044406466495   -2.38262271903057   -0.41701864851169
O          -1.31385316630884    1.95616990561709   -1.26824347482252
H          -0.59475567506138    2.49553296308286   -0.84943080858019
O          -2.76129058415376   -2.40504232440869    0.87621340148031
H          -3.70543029554176   -2.51088251754147    0.75282726147799
H          -2.62191084834808   -1.50002909978926    1.18857135393897
O           0.14839527830906    0.21804902223930   -2.22675091043171
H          -0.57682886297651    1.01224655897177   -1.92287753189377
H           0.97794119202195    0.45744223608462   -1.64198333147055
H          -0.19162052815197   -0.63988548124971   -1.84968462762542
O          -1.61612123283411    0.25308548357021    0.70819361945259
H          -1.28347460947996   -0.48609771544505    0.15734619378630
H          -0.83041094029040    0.56164898620898    1.19911562277538
H          -1.69314000770017    1.43645640027915   -0.51385545487717
N           1.50008346793969   -1.70629790126691    0.78325430144130
H           1.70769481466713   -2.34969994082113    1.53662180399327
H           1.32096824376862   -0.78781776023475    1.19090322271733
H           2.33242402867502   -1.60387810227496    0.21560302259614
H           0.19731720429845   -1.91020112751773   -0.19418490925345
