    26
        -50.45997521  Gyration_radius:  2.57069885875 Dipole_moment: 7.029
 S           0.40013899177860   -0.49740422586943    0.82322612454062
O           0.06052565912180   -0.38969363948483    2.24805993951890
O          -0.67847314190487    0.39100479436191    0.12937991043116
O           1.71190419844133    0.01707110067857    0.50794187482121
O           0.19729845602237   -1.86138615012259    0.33735966878612
O           1.70987068020345   -1.43758596872704   -1.83931679960067
H           2.33241805652675   -0.90100756830056   -1.33595416911595
H           1.15505884696415   -1.84691923392678   -1.15205461258651
O          -2.14415172498309   -2.85634381328978    0.82365426086861
H          -1.24858690866985   -2.53568488530138    0.53134910139206
H          -1.98338490645691   -3.68925563843002    1.27081241132916
O           1.89744179774622    2.63432489967210    0.39441440129056
H           1.78585523447472    1.66243842039987    0.49964664773426
H           2.81189116235484    2.81341081062729    0.62149589688404
O           1.25727279397081    2.80355823566237   -2.20507722588013
H           1.52421627295593    2.77925113192456   -1.25803691550610
H           0.66187373058924    3.54921665788588   -2.29338083440073
O          -0.08176561442109    0.48570525211782   -2.29746516696946
H          -0.46993357724948    0.44369813305335   -0.89382856417582
H           0.43272017901895    1.32186281097686   -2.38483121605809
H           0.57621597992604   -0.24578003040845   -2.35157122450425
N          -2.43135915431851   -0.51933451656361    1.98746217555170
H          -1.34099313721022   -0.43491236168061    2.23907893778103
H          -2.56256857158731    0.15192713167955    1.23125827948334
H          -2.52484737177084   -1.49846434985919    1.59435549328534
H          -3.04863790151610   -0.33969701704375    2.77202160508651
