    26
        -50.46126937  Gyration_radius:  2.53142625258 Dipole_moment: 6.046
 S           1.85481511795119    0.28455909311841   -1.31333014513657
O           2.58870219583373   -0.62671316741338   -0.46376209185484
O           0.82312582022315   -0.35653622175036   -2.11552093704980
O           1.34092276049748    1.43467799753661   -0.57840549438938
O           2.90162258278101    0.86127542518653   -2.36276586859181
H           3.64747820605039    1.09147247219715   -1.81757625061303
O          -0.63390369033186   -1.84418055086578    1.02960015444016
H          -0.78802823551233   -2.58410154478471    1.61815660437910
O          -1.65031576962766    1.72132016622031    2.33218825947148
H          -1.83515234327366    1.62317458591194    3.26672849475435
O          -1.03759207445145    1.38550604444662   -1.68982449757722
H          -0.33533873480477    1.86403938795168   -1.21275691975891
H          -0.50603600739201    0.66922596281202   -2.10480664991757
O           0.98474458199795   -2.65201981787771   -0.80848563976913
H           0.70651459621492   -2.13492333176293   -1.58171556159646
H           1.77677928784727   -2.14814200558221   -0.52680823935791
H          -0.02139779482484   -2.19118898750171    0.30835770698407
O           0.65264303090528    0.58672772261779    1.84357165458126
H           0.42714428707460   -0.33404167689396    1.65186799518192
H           1.02280763297301    0.94451440885071    1.01049656894686
H          -0.70570971059924    1.42786303918914    2.20489458281846
N          -2.26804222625486    0.18213246986591    0.26159507208175
H          -3.23201631717929   -0.04974489996114    0.05026704566235
H          -1.80154184688010    0.68562028792357   -0.58045371506769
H          -2.19776754013173    0.82998260076072    1.08921573935212
H          -1.71445780925569   -0.67049948026658    0.48927214202014
