    26
        -50.46126939  Gyration_radius:  2.53138003919 Dipole_moment: 6.042
 S          -0.19084895610533   -0.96045808461933   -2.07042723345677
O          -1.36122859168532   -1.68107087804284   -1.62126740891987
O          -0.39808330953595    0.47332664588356   -2.21264960005559
O           0.98886167397160   -1.26628250115270   -1.26931387677651
O           0.12276157721118   -1.48469200990962   -3.53880142831372
H           0.05484869699959   -2.43009020753690   -3.44829972210138
O          -1.63952080247290    0.60184666120666    1.34680495169796
H          -2.34517617002381    0.67653717542749    1.99036722394949
O           1.92711072944160   -0.33975211829267    2.70118171141572
H           1.80553351592779   -0.61305275958115    3.61096833308265
O           1.79276954297366    1.22483290667404   -1.06662980685021
H           0.98793488089411    1.22320334080215   -1.63234434125339
H           1.97872795397746    0.26869761101047   -1.03285942389023
O          -2.73966274597477    0.43580771644755   -0.97986145963241
H          -2.53766088249959   -0.50585001106069   -1.16177495701376
H          -2.09249187013987    0.56468362507091    0.44727510759261
H          -2.09216830142043    0.87445799766129   -1.55516676918870
O           0.17777098226979   -1.61482823491487    1.23683428182294
H          -0.60376089764426   -1.04528078832017    1.25140313550003
H           0.47722928120781   -1.62457185294201    0.30449664249674
H           1.36518921786846   -0.95294576122477    2.15084810089630
N           0.85969303875517    1.66008430525564    1.32291340902618
H           0.96280937570340    2.62113831491937    1.62856827157715
H           1.37262346357841    0.99433797896923    1.95783886094753
H          -0.14090670482842    1.37025518646020    1.31536557011410
H           1.26764530083879    1.52966573170183    0.32453044741304
