    26
        -50.44771854  Gyration_radius:  2.47441385895 Dipole_moment: 3.706
 S          -1.05663625536456    1.91196129981006    0.46857180557821
O          -0.16619983342802    2.75855656296125   -0.29490664005704
O          -1.78012465894080    0.96895947594609   -0.39517552838038
O          -0.43116100859531    1.23285140943513    1.58172998626298
O          -2.16221520924453    2.86455018755277    1.08301818813514
H          -2.25106297710011    3.52499702979877    0.40354391130650
O           0.11744126099051   -2.16851933952282    0.11082051365532
H           0.06065733101747   -3.10406565126322   -0.08466505950351
O           1.64106820635878    1.16235353981369   -1.31799113936230
H           1.08169317614186    1.92425832402003   -1.04128318707897
O           2.48340277743895   -1.61780219741047   -1.63986699782295
H           2.85325478833047   -1.43988489245498   -0.77150567007201
H           2.66928166111629   -0.84281704839685   -2.17545071804735
O          -0.22664355968871   -0.42656520993423   -1.75151923364667
H          -0.00835820932166   -1.20654830845311   -1.13287723166426
H          -0.95345849694713    0.13277295861524   -1.25473382899372
H           0.63272197858205    0.21326506833904   -1.70953564479002
O           1.81809794872682   -0.12234666797963    0.97976906611759
H           1.39286837025753   -0.97571962495703    0.80441458559086
H           1.93324356442136    0.75435804543657   -0.46328158353016
H           1.11935395425237    0.42374017270687    1.38606117728189
N          -1.85118407563488   -1.20283068243634    1.51668255925434
H          -2.62906321839479   -0.98008187528706    0.90696619194044
H          -0.67373901645621   -1.90404130887587    0.68853748985224
H          -1.39263112285727   -0.31148967757920    1.71801737149577
H          -2.22060739565627   -1.56991154988798    2.38465962649088
