    26
        -50.46126925  Gyration_radius:  2.53139044012 Dipole_moment: 6.041
 S           1.89686633890427   -0.02587708392876   -1.28270297515003
O           2.08285681222130   -1.42430722629402   -0.96482023449083
O           0.76099878899108    0.23576052108479   -2.15453505877502
O           1.87776320346696    0.81514262380724   -0.09128366157050
O           3.17568671675593    0.41805607768155   -2.11769868500322
H           3.89711489720256    0.05453969770675   -1.61383015074612
O          -0.92691934405703    1.12407781335705    3.00160191674795
H          -1.21501488990210    0.73619826162120    3.82848518216020
O          -1.45935857316861   -1.63232030141748    0.25298489603141
H          -1.96842238635540   -2.40391860199944    0.50419100075249
O          -0.18033650099328    2.25803625837681   -0.84966308273780
H           0.61757631617741    2.14110301389627   -0.30228795673297
H           0.01732705908101    1.62689444824272   -1.57792838033332
O          -0.20693814981037   -2.21695499597201   -1.92452600436949
H           0.69829712297246   -2.26879799396907   -1.55239540197836
H          -1.00163329866764   -1.87598617766330   -0.61116424647474
H          -0.16544940449895   -1.36274681011739   -2.38408295818685
O           0.68422515600814   -0.57166672862486    1.83582952307485
H           1.24324668366806   -0.09912413431016    1.18539667613919
H          -0.19734231115425    0.53619531418449    2.65993410589153
H           0.09725106476392   -1.13413778741476    1.31185920073946
N          -1.97396926268890    1.01428707232014    0.56640787486996
H          -2.92045652573825    1.33061612081292    0.38814632531103
H          -1.26424711718519    1.56629417858352   -0.04352867113035
H          -1.69956870498442    1.16061091124632    1.57277089320014
H          -1.86955369047692   -0.00197447118448    0.36283987298178
