    26
        -50.46126935  Gyration_radius:  2.53131964981 Dipole_moment: 6.043
 S          -1.56186419110048    1.31327658967922   -1.03948954606354
O          -0.92480944738364    0.47953484464273   -2.04837632692059
O          -2.61017449949643    0.64449336929876   -0.30157520368081
O          -0.58718132050722    1.95128167732072   -0.16175122812304
O          -2.26310808169365    2.48801044749317   -1.85031966990570
H          -2.82828871555302    2.89096086653424   -1.19857277301624
O          -0.21815957565731   -2.11080495171180    0.60116357210303
H          -0.39253117109028   -2.95313757840632    1.02282072485480
O           2.26504160038982    0.32487954809690    2.42613499106098
H           2.40138889007888   -0.03879300010761    3.30160356097986
O           1.51478770710563    1.13887826783833   -1.50563035549585
H           1.09215336588729    1.75362125265040   -0.87798608570402
H           0.72194948457880    0.81866709180067   -1.99153490255725
O          -0.30900301217645    0.40239834200107    1.97983813327965
H          -0.50839425909121   -0.46398147252989    1.59894957268862
H           1.28519640396919    0.49266346340179    2.34626713308047
H          -0.49654437827172    1.04991087835631    1.26959377798658
O          -2.05337358346680   -1.74799421831316   -1.17399594077949
H          -0.93111280547602   -2.00447365832847   -0.10317811047435
H          -2.54415131788969   -1.02910582313249   -0.72378917223823
H          -1.58795700198808   -1.24593514672389   -1.86263957861523
N           2.12410579733400   -0.85320748105570    0.05305121306592
H           1.25774717102459   -1.41852485592084    0.17559682300798
H           1.91240210707747   -0.03441100185263   -0.62909185999546
H           2.35365434780531   -0.42747641391470    0.98876013307067
H           2.88822648542158   -1.42073103699469   -0.29584889227506
