    26
        -50.45376604  Gyration_radius:  2.45991380799 Dipole_moment: 4.223
 S          -0.29392123079237    1.69633866082609    0.98499309758147
O           1.20453340030523    1.36944170447339    1.16227801443739
O          -0.84494578826104    0.78827728339324    0.01412779089268
O          -0.95052215472728    1.71117021634994    2.24969788801901
O          -0.27450391359920    3.12443139286757    0.39761528989302
H           0.23210726419044    3.01347685225502   -0.45014774043836
O          -0.11980804254737   -2.44229440904433    0.60047233822649
H           0.15394419372491   -3.23596784493773    1.06244064188951
O           0.89762510916748   -0.08504419097530   -2.59426078537512
H           1.02746405168754   -0.26232121724441   -3.52671218711616
O           1.25071531034968    2.42459492136250   -1.58351749344894
H           0.99916486326361    1.56785472128528   -1.98567119464319
H           2.06896260737005    2.26551918125513   -1.10555754570435
O          -1.25742578714909   -1.23798479825844   -1.66078522857888
H          -0.93409431865351   -1.91212247986634   -1.04542868283986
H          -1.40328300094890   -0.46216721220189   -1.09414248313029
H           0.03340199003180   -0.51571820136029   -2.33691799271952
O           1.81991651465188   -0.71902823269984   -0.09969832488966
H           1.47386571901070    0.50100325418635    0.66517925351621
H           1.14290516624734   -1.37918094658710    0.17130869434137
H           1.62568651082720   -0.52151571794313   -1.03379168083379
N          -1.62351007746331   -1.10829070568428    2.33310816228290
H          -2.59320475145056   -1.16133609845109    2.04367704685902
H          -1.58483416747699   -1.37534676050654    3.31008667578090
H          -0.69030195353090   -1.91921157894776    1.24130822463656
H          -1.35993753420101   -0.12457774354055    2.28033823137710
