    26
        -50.46126938  Gyration_radius:  2.53132819057 Dipole_moment: 6.041
 S          -1.31995250837862    1.87049121193552   -0.06258105746556
O          -0.05016861851392    2.18727309092565   -0.69993217444360
O          -2.25224613414163    1.17744075103641   -0.92366025370065
O          -1.13677148632956    1.19164868718564    1.21515653224409
O          -1.98074533567153    3.27733055660793    0.27416889924674
H          -2.87656256633115    3.04578148345786    0.49862163778626
O           0.69090036279104   -2.45178180102072    2.15281839551454
H           0.55744608923948   -3.39933894330766    2.19177088503417
O           0.34143640479100   -1.44685932241582   -1.62930054078078
H           0.32630437004054   -2.15837036141456   -2.27055796699987
O           1.47535438970177    1.45267419864781    1.25210308266504
H           0.63150222739481    1.30709116335752    1.71754244465124
H           1.14844080709920    1.90357928504491    0.44113234762957
O          -0.53173539549439    0.67063944539593   -2.81461005981084
H          -0.03546767297569    1.38111680506992   -2.37688540651429
H           0.02144552742836   -0.62789461467065   -2.12187052823614
H          -1.39502604666259    0.74111258190232   -2.35594815333858
O          -1.25926516879417   -1.42173341518376    0.75057251531552
H          -0.93830375113485   -1.45541670037980   -0.16115953243965
H          -0.14161362247386   -2.07146655964559    1.75676509610502
H          -1.34618222378644   -0.46966925877922    0.96265459208331
N           2.03877647756656   -0.95060489773689    0.42980982452767
H           1.48278729620819   -1.11309121867305   -0.43603500999663
H           3.02795123911028   -1.10060575036815    0.26638089619775
H           1.85695074077787    0.06326985628871    0.77539357932518
H           1.66474458865490   -1.60261628322474    1.16764994537468
