    26
        -50.46126944  Gyration_radius:  2.53145045411 Dipole_moment: 6.040
 S           0.12889904929111   -2.19153186216745   -0.65457973530247
O           0.48672806415087   -2.56864797955701    0.69469110747417
O          -1.25175709730885   -1.75334466791441   -0.79921491757419
O           1.06912653163339   -1.23695288639884   -1.23066884725931
O           0.24248520949542   -3.51108014407407   -1.53494354988084
H           1.07875800425702   -3.87793056406549   -1.26550879996663
O           1.83130310861679    2.77070750079617   -0.30663353800068
H           2.31383273533649    3.35317718940138    0.28080140558129
O          -0.69128434250855    0.77137523531083    1.94727918601319
H          -0.80602213022348    1.07438857378840    2.84877040870695
O          -0.77404742463684    0.31729874094026   -2.26946635068282
H           0.14452563100521   -0.00744856148200   -2.24257149585989
H          -1.23664383547197   -0.44145592877611   -1.84744368201928
O          -1.66638399881807   -1.61213013769015    1.81009993631624
H          -1.10192990238296   -0.14841442034071    1.91329782233312
H          -1.99948543800309   -1.65483106340896    0.89900369560133
H          -0.82296425715950   -2.10283521900084    1.71954646130116
O           1.87221436068685    0.37055054387582    0.72672533908102
H           1.99872931864479    1.84460325270528    0.02344497756944
H           1.09649358572038    0.34864346700825    1.30401229597073
H           1.69544939208048   -0.28969018496713    0.02542047915082
N          -0.74118170880073    2.12911777596708   -0.40255267999651
H          -1.45485412280118    2.84004642148245   -0.51626997001619
H          -0.79386188401201    1.40112646182339   -1.20737079838719
H           0.22644976077268    2.54475521625215   -0.42208169777985
H          -0.84457859957505    1.63050322029883    0.50621293762871
