    26
        -50.46126941  Gyration_radius:  2.53163040418 Dipole_moment: 6.045
 S           0.74864533027951   -1.21700884332622   -1.79117349468459
O           1.19349787731325   -1.87990744457603   -0.57401463083241
O          -0.61854631072047   -1.51482006386293   -2.15570200579518
O           1.01404678614556    0.21688964319349   -1.76175044851240
O           1.66210278094105   -1.81220684959027   -2.94896352764824
H           1.22388281002504   -1.51737415410036   -3.74116101259343
O          -1.76942728596590   -0.41647009862980    1.25008061140655
H          -2.63350511676081   -0.50028071832432    1.65509331499000
O          -0.33132584299495    3.21461301642831    0.82503138692406
H          -1.05571008938799    3.81341302150681    1.00926686027605
O           2.36370476342533    0.16511831444241    0.48839709422588
H           2.13471668847875    0.59696373466615   -0.35495980660816
H           2.11920682089962   -0.76385416247468    0.27712854264079
O          -1.24216462275870   -2.66355125999450    0.09956450733402
H          -0.27685178104043   -2.72636631005342    0.18386237657264
H          -1.57588901809659   -1.31214337086186    0.83054493003973
H          -1.32558675201551   -2.36777999186882   -0.83099229911960
O          -1.18214037422223    1.41999402114028   -0.87348108707189
H          -0.62999049687116    2.64565531560985    0.06221504020848
H          -0.41614256985275    1.01217802251445   -1.32743556773452
H          -1.55258350129124    0.72295957221511   -0.31465032495973
N           0.42783455371235    0.97475617077990    2.02698877213887
H          -0.39391217342951    0.36659660032401    1.82669856613894
H           0.18492908146253    1.94543323019051    1.69773899076736
H           0.66321759961486    0.96350708721745    3.01297397467085
H           1.26799085293075    0.63368550760555    1.42869921702451
