    26
        -50.46742641  Gyration_radius:  2.40188999449 Dipole_moment: 4.776
 S          -0.74943070710137    1.53125451957556    0.22948984336752
O           0.75221198206560    1.17691447988812    0.55218497935529
O          -1.47211361810566    0.26094389639791    0.16832086139164
O          -1.14230948999584    2.30520107688381    1.40455634510845
O          -0.79438758182293    2.24396021156002   -1.02395066107582
H          -0.45020449191538    1.30711849312722   -2.28681571196493
O          -0.13587528150213    0.70492144397081   -3.01180272967959
H          -0.08232866047118    1.25074724364416   -3.79770827810775
O           0.90181856721758   -2.37622249884867   -0.39796458208012
H           1.08207012679362   -3.30133223796989   -0.56790286760629
O          -0.35705265283086   -1.34656792356939    1.86864919966830
H          -0.93714084286906   -0.84140534099703    1.24810225197685
H           0.29166550301462   -1.76387321102051    1.27654305433404
O          -1.17547663537599   -1.54261006510774   -1.75826844429585
H           0.07825409505065   -2.15257406720265   -0.91788222860771
H          -1.48920331314312   -0.92770362999932   -1.06440255543918
H          -0.88404201505701   -0.95579211319001   -2.47061202397642
O           1.91054266817779   -0.02968339409589   -1.38832121128600
H           1.23434505732963    0.76468023394405   -0.23311602853511
H           1.72593514057543   -0.93745375373056   -1.08598156776124
H           1.29080743371871    0.15542557816493   -2.12011039061912
N           0.09120431226846    0.89430109198356    3.11592484431558
H          -0.48799105970777    1.55333575388069    2.44156953018516
H          -0.00275287946558   -0.09243690980956    2.68637584723794
H           1.06151540952282    1.19154159023165    3.06526848547508
H          -0.26006106637503    0.92730952229735    4.06785404862862
