    26
        -50.46742657  Gyration_radius:  2.40210888574 Dipole_moment: 4.777
 S          -0.90087901031243   -0.30677692571176   -1.43390888802529
O          -1.25689281754400   -0.82704650328124    0.01083227535815
O           0.51778021782238    0.04881224414050   -1.40977417150893
O          -1.13309801357290   -1.49333157500063   -2.25398299741042
O          -1.74119809598620    0.82666345748483   -1.73432846913228
H          -1.36225551152013    2.12869560066935   -0.86710924583459
O          -1.14653452273517    2.86529595891937   -0.23625634503053
H          -1.79850033919850    3.54797062625561   -0.40186761376373
O           1.51498166478188    0.56221953131481    2.00377726587838
H           2.18329880517896    0.82449249495325    2.63767620299116
O           1.69844452826995   -1.57940071795219    0.22546360333240
H           1.62389222421281   -1.05401440112450    1.04026772861367
H           1.42038046425945   -0.94460897723933   -0.47910675923732
O           1.52560173119237    2.12625609769072   -0.09747082933239
H           1.29204205338120    1.41768966278617   -0.73088398381440
H           0.74056004528676    2.69218956382819   -0.08614686422706
H           1.61428971165662    1.17800045569782    1.22310597624955
O          -1.17274477696694    1.03582523915570    1.76747288794520
H          -0.24816663614459    0.89634664178305    2.04171647757137
H          -1.18145799039435    1.82921632319512    1.19792237560497
H          -1.29341110658524   -0.08612191675494    0.69553183443974
N          -0.17576133172838   -3.17890133313386   -0.61609229975376
H           0.62368613846045   -2.60905354727559   -0.16595918695057
H          -0.59636686849495   -2.51256829110616   -1.39338423665111
H           0.15851265028182   -4.05277132346424   -1.01024608643600
H          -0.90620321360419   -3.33507841583299    0.07275136912476
