    26
        -50.47166909  Gyration_radius:  2.4184655068 Dipole_moment: 3.980
 S          -0.25900233149296    0.45416235400664   -0.76763196974667
O           0.70857781430764    0.22476855711775   -1.97015724568427
O           0.17060254841036    1.72984763283270   -0.19330895915894
O          -1.62298284506118    0.47325389251290   -1.23598888550397
O          -0.01446942831737   -0.65045284024468    0.16821683385527
O          -1.95530849563949   -2.14205634772507   -1.17807627837474
H          -2.06491421561191   -1.16861856710123   -1.19664271058959
H          -1.38402657391997   -2.29875622642563   -0.41951949416856
O           2.62025285368510   -0.59861174846474    0.16924758796612
H           1.66109037027479   -0.80825240414351    0.15405600048297
H           2.82809291611220   -0.33503716580531   -0.73032754583860
O          -0.29698270145392   -0.02422707298349    2.76572679956636
H          -0.25622730739771   -0.53224964180430    1.93339501926023
H          -1.03573587858915    0.59471096166521    2.61123894780737
O          -1.99334166613313    1.61310042555662    1.41497808830380
H          -1.28113908438281    1.86043083304386    0.80317059614922
H          -2.67744987103785    1.24167204735248    0.85275754807691
O          -0.30167599255102   -1.80892132821677   -3.20094358448160
H          -0.93640202479738   -2.11543450423179   -2.50246959976432
H          -0.84232935701347   -1.49862634152888   -3.93074162497014
H           0.37744619479579   -0.56535289311989   -2.49072748473484
N           1.74568613403976    1.29547585298677    1.81958303868605
H           2.37173230348183    0.58210931231742    1.38079890187654
H           1.02105131439228    0.79015849637127    2.42692961506299
H           2.24910809663081    2.02455939224467    2.31166818663749
H           1.16834723730503    1.66234732382289    1.00476822929388
