    26
        -50.46742647  Gyration_radius:  2.4023954148 Dipole_moment: 4.778
 S           0.80904697957342    0.32658165387676    1.48472079848196
O           1.49400631082119    0.20577634272103    0.07019944121085
O          -0.49030225278553   -0.33627199848990    1.37520654213023
O           1.72047715322448   -0.43654835307432    2.33407991121938
O           0.68031108492652    1.72479823908806    1.81551311125998
H          -0.41826497534070    2.47645725473603    0.90996851921854
O          -1.03330893379185    2.90464681111620    0.25777981840269
H          -1.00057216421474    3.84337936165080    0.44806446040656
O          -1.41124828735944   -0.52283238036720   -2.09085209411909
H          -2.05423619109246   -0.74539235001670   -2.76486776749620
O          -0.22646805856480   -2.30012034501600   -0.29547733270917
H          -0.46952203022785   -1.65520204565952    0.41288560341219
H          -0.47605432037026   -1.83711417460540   -1.11316963093227
O          -2.55212749723294    0.59649144299731   -0.01511600387615
H          -2.33353346345338    1.53901985209563    0.00746848525396
H          -1.92975828157537   -0.14400091495309   -1.32529768321255
H          -1.94105653665649    0.20086247077867    0.63903495526417
O           0.28837059244118    1.59196840367555   -1.71520208934825
H          -0.30167490292446    0.88578878974922   -2.03581322808876
H          -0.25481774792598    2.18153089226055   -1.15727226873530
H           1.06622762834303    0.80235324432454   -0.62283258616562
N           2.19169445308554   -2.29369123924775    0.67010383463699
H           2.03005918408905   -1.53547091935732    1.46029868612944
H           1.23889619350489   -2.37913460517282    0.16883756920167
H           2.87769922182972   -1.91230296584348    0.02490219032666
H           2.49615683167236   -3.18157244726840    1.05683675813642
