    26
        -50.46742640  Gyration_radius:  2.40246567738 Dipole_moment: 4.781
 S           0.01088088799610    1.34771901880689   -1.07156064263365
O           0.51251197483815   -0.10618940785547   -1.41641584047825
O          -0.00525903697638    1.44679493184211    0.38782240332895
O           1.06500926268050    2.18098809693205   -1.64508036751531
O          -1.30091429274154    1.52962040788835   -1.64357144631030
H          -2.42964582052656    0.66129502726906   -0.89262332476929
O          -3.06027611367621    0.03073890888565   -0.45478077524443
H          -3.88336941387088    0.10875415449823   -0.93949821238228
O          -0.08714460812007   -1.86330480569057    1.77754101462160
H          -0.15544682093708   -2.43866358775949    2.54013414183363
O           1.94017900545892   -0.00880429441008    1.28977104920535
H           1.21971851603574    0.64296303905708    1.10814503982657
H           1.45832646197456   -0.84383606150367    1.41536299187730
O          -1.17913943583864   -1.90480651704200   -0.73398922581925
H          -0.17688735619559   -0.81528274387615   -1.21337782290159
H          -0.81475732233783   -2.08148988162559    0.15237324152750
H          -1.98292848843097   -1.36495128887560   -0.60596765436280
O          -1.71828206233312    0.17745604951152    1.97144981628398
H          -1.11827485449228    0.80651262196828    1.52190061042593
H          -2.44919339573381    0.07071715178516    1.34614776673885
H          -0.70431768990175   -1.09672938184021    1.95044753466168
N           3.01305394316610    0.69924582177002   -0.97460114813086
H           3.03252017577412   -0.05099018186057   -1.65951189844608
H           2.22612703490189    1.41044105700238   -1.29126158110626
H           2.66966990823884    0.30977744578630   -0.02768279407872
H           3.91783954103290    1.15202441937202   -0.89117285613638
