    26
        -50.46742643  Gyration_radius:  2.40189924938 Dipole_moment: 4.778
 S           0.39017579993142    1.45793061658031   -0.82520721813857
O           0.67176985987026    1.21033143707423    0.58871418305954
O          -0.72088122082245    0.42291969018851   -1.24854499637785
O          -0.29287239449970    2.73583113217502   -1.01086580953148
O           1.55141788426430    1.25097141117566   -1.65574282123077
H           2.31470480576324   -0.12786668342269   -1.32900819707761
O           2.68312588654946   -1.03289075043129   -1.14928421256566
H           3.37918723678482   -1.16261973586208   -1.79517431139845
O          -0.43159765409360   -2.10944297508409    1.40790998627154
H          -0.49638938136343   -2.82420546674191    2.04207982010894
O          -1.54031491358687    0.43499823428399    1.69482349361213
H          -0.65064558088595    0.78848113426705    1.44906727370407
H          -1.43910228985321   -0.52470899521855    1.57560579797733
O           1.91287039334113   -0.94641362578754    1.51623680071408
H           2.42651521191243   -1.17562076785419    0.72862895164679
H           1.57168660888223   -0.05058831197636    1.31859688667012
H           0.46869499684313   -1.69745336469896    1.54313172191926
O           0.14602191725226   -1.98767381995579   -1.26696884593910
H          -0.36805708321441   -0.51980815381337   -1.32559922604896
H           1.11125286378708   -1.83933680724819   -1.25157868825374
H          -0.11866995091767   -2.21250166477351   -0.35650381551474
N          -2.55353145408110    1.99481587171007   -0.12667705774168
H          -3.16188708620989    2.72479220623761    0.23060515613963
H          -2.26245189496290    1.29908115041584    0.64681515711594
H          -2.99001013054342    1.48507904700300   -0.88959282404484
H          -1.60101241013718    2.40589919176510   -0.51146719506858
