    26
        -50.43876728  Gyration_radius:  2.56308479752 Dipole_moment: 1.937
 S          -1.56214828728216    1.11131792173667    1.37764806129915
O          -1.40109538069813    1.50822665419587   -0.03661130695392
O          -2.50052434865902    0.02173405999037    1.50919310486569
O          -0.28506665349781    0.90296942354255    2.01138535626028
O          -2.23026661584293    2.36788345701371    2.07753294183551
H          -3.14518482488434    2.25811050710998    1.83866824460090
O           0.61465501734839   -1.81415283395810   -0.37190229644441
H           0.75618228031275   -2.66098818734498   -0.79704089849106
O           1.05794615299219    1.78986814663294   -1.93418246605010
H           0.49133734257870    2.53154324512743   -1.70910769155025
O           2.19759313558550   -0.73016929826076   -2.58926149853034
H           2.09613654510542    0.17425471688139   -2.89959700924600
H           2.79149038603598   -0.68532968435573   -1.83704744351605
O          -0.66792323719416   -0.08506941585641   -1.74252028217098
H          -0.16085672106929   -0.83674523756596   -1.25798517076344
H          -1.11119442881404    0.53585482913014   -0.97694269941301
H           0.05714117852650    0.55953742562789   -2.06446177850602
O           1.74904737051149    0.64659705803736    0.31762973811639
H           1.07948479972396    0.86289512392960    1.00041229594140
H           1.60412950072593   -0.29184103215664    0.12872446190602
H           1.43435445185255    1.47404069605030   -1.06491955204810
N          -0.61294883592381   -1.98247283244922    1.88709331076282
H          -0.92885086424936   -2.83543205363560    2.33207439976009
H           0.11743543417570   -1.96426238402949    0.51378366577237
H          -1.42392177362127   -1.37306736849381    1.74807091935497
H          -0.01695163373727   -1.48530292690414    2.53936357320518
