    26
        -50.45450931  Gyration_radius:  2.45196709416 Dipole_moment: 5.294
 S          -1.21485338043508    1.50845249284819    0.78206796717177
O           0.17624391737137    1.09367810512381    0.78717955836515
O          -2.07531612657621    0.39285927428748    0.16515650003894
O          -1.76213840411237    1.84058965109362    2.04740994076419
O          -1.34622794251729    2.68540273224920   -0.20898565711147
H          -0.50046891843797    2.74460006496729   -0.74939774676330
O           0.19565856211262   -2.56806862341233    0.44633224505102
H          -0.04961292767756   -3.48705508139929    0.56069722177929
O           1.39088185271952    0.16821844073852   -2.38796187087097
H           2.00393046033030   -0.05629813376695   -3.08884779634222
O           0.95523272843919    2.65080636106118   -1.36576861962284
H           1.04320168085782    1.82989636902132   -1.89074714840646
H           1.41214753994786    2.47119166187857   -0.53739445820616
O          -0.89544278626642   -1.05799982256654   -1.53095033517627
H          -0.16069907288651   -0.58729880304025   -1.96533016676367
H          -0.48702379008358   -1.69488039666936   -0.90806041378224
H          -1.61385867254400   -0.15176717567397   -0.57554043750808
O           2.11039433259904   -0.61180800483478   -0.00928895431110
H           1.53122190328479    0.03836443664238    0.42556269929604
H           1.68089546124638   -1.46439082234925    0.15697042404746
H           1.79367551285554   -0.14973894155812   -1.52953086839965
N          -0.88450588278831   -1.09894723125604    2.39216807078006
H          -0.82586491000422   -1.28330994576962    3.38682305994164
H          -0.20634272825772   -2.06476980063968    1.21247486566766
H          -1.85897775052220   -0.92982178265094    2.16956953895482
H          -0.41215065865770   -0.21790503432548    2.21539239140704
