    26
        -50.45450932  Gyration_radius:  2.45195570127 Dipole_moment: 5.294
 S           1.33418212755782    0.81920831124175    1.38277438254787
O           2.04191876160640   -0.23446034465407    0.51427262085490
O          -0.08823152427881    0.80198515150268    1.09348994998661
O           1.68927792851570    0.58794262779218    2.73604689038301
O           1.89506550376949    2.16779851749068    0.88145614579275
H           1.19852264886100    2.61039007659109    0.30719276002920
O          -0.81189734483065   -2.43465319100354   -0.49548685049831
H          -0.79110936412617   -3.37428549032245   -0.68111862655577
O          -0.84637527524573    1.25703271811650   -2.31697248244469
H          -1.34892112236258    1.42952996963203   -3.11394623513874
O          -0.10094239947724    3.09601549829544   -0.45672179289430
H          -0.25815879294672    2.53132742661795   -1.24006556673977
H          -0.73357436087610    2.79417729025372    0.20353594108651
O          -2.15102541440175   -0.00463919645510   -0.44872969608179
H          -1.94985453012889   -0.94785561770213   -0.54295509855612
H          -1.54120493563446    0.30351275473167    0.24439478563315
H          -1.46210652213069    0.80578920890420   -1.67083013911132
O           0.92654816090145   -0.72709913803545   -1.69631143922152
H           0.28291395438358   -1.39536043660852   -1.38069721621067
H           0.40306761093537    0.02984417495039   -2.01740746578341
H           1.62511987579143   -0.38231321968345   -0.41457165821460
N           0.16443894699759   -1.97695326455155    1.94341728027339
H          -0.11952940815108   -2.43780171586926    2.80001320322804
H          -0.46569760443579   -2.31707466025849    0.43631468676402
H          -0.06923009491995   -0.99306023271569    2.03273843216403
H           1.17680314462725   -2.00899719826090    1.90016716870884
