    26
        -50.45634937  Gyration_radius:  2.66559038037 Dipole_moment: 5.735
 S           0.78763691336653   -2.48849714155304    0.72827084065748
O           1.92400973985635   -1.98701521788400    1.47114340820285
O          -0.48321543069130   -1.92537787712285    1.12180513673105
O           0.98893666895734   -2.38974676830389   -0.72283213554973
O           0.71793395141169   -4.04798789341134    1.04893456677475
H           1.63931440078041   -4.27305702052350    1.13333329322694
O          -1.35338410159260    1.69067926883068    1.45760743751701
H          -1.46994098714539    2.09627872257180    2.31705089554837
O           1.28833154532406    1.50791352977802   -1.22553833533322
H           2.20569855921836    1.56624627790575   -1.49533716411970
O          -2.29628628368144   -0.40831283060275   -0.02595353829744
H          -1.82121974543664   -1.10731230102399    0.47352051014429
H          -2.15692693009419    0.38788645066790    0.51417884270167
O           1.22798513820637    0.52956246842544    1.14865781671685
H           1.30972401669027    1.13258359578154   -0.28742604206765
H           0.31063318310424    0.58656433697853    1.45291761418753
H           1.52968951215064   -0.38951280320084    1.31665103998697
O          -0.47705357906179    3.43608415506879   -0.41377272680711
H          -1.07491527488032    3.58799153619706   -1.14719935344861
H          -1.04519128879757    2.39646591155402    0.85019573242527
H           0.24328243442099    2.86958605416526   -0.74864511855422
N          -0.40912240073672   -0.53993443365290   -1.82590744887521
H           0.16120958696069   -1.35762926587755   -1.40615543672663
H           0.19982135266666    0.29826211796610   -1.78274367897140
H          -0.69002293550195   -0.75448273372872   -2.77552898104917
H          -1.25692802550247   -0.41723815901104   -1.17722718502912
