    26
        -50.45634945  Gyration_radius:  2.66561225222 Dipole_moment: 5.734
 S          -2.39853702143960    0.31049419058058   -1.22238367756311
O          -1.15241784925702    0.26109944795603   -1.95153056829482
O          -2.87929735240981   -0.97556034272003   -0.76448921518681
O          -2.34349435268689    1.29812070861155   -0.13734046104518
O          -3.50384342943296    0.84637564789420   -2.23776555445334
H          -4.30564911757496    0.50371998107372   -1.85504998376543
O           2.02741072575798   -1.38421445417118   -0.88691458895237
H           2.32811821914898   -2.19597496659905   -1.29600209607886
O           0.30754555458062   -0.30872021875109    2.29163048344603
H          -0.25834137539468   -0.50535115448447    3.03920573073510
O           1.28430310165345    1.16332616664996   -1.56092739939341
H           1.71787618165131    0.30439445835343   -1.42186993464689
H           0.41125033338954    0.91834635773977   -1.93739078700151
O          -0.55820755567791   -1.64671242346705    0.27668572020338
H           0.08804901887093   -1.53297072719524   -0.43518581133642
H          -0.05761756442159   -0.86126302270392    1.52851378922750
H          -1.44279800184464   -1.45993480584000   -0.10614183830124
O           2.84318211589279   -1.14058414489557    1.68045904057195
H           2.37624565987387   -1.38217044661579    0.02979192247477
H           3.42540935947439   -0.40023510789189    1.85771954966703
H           1.96800547394369   -0.90495442449116    2.04158619770870
N           0.04451745639646    1.84096795856488    0.63483412331866
H           0.16099143262656    2.79492775067215    0.95595064931435
H          -0.97261173604497    1.67356910499913    0.30723326711835
H           0.66094396112327    1.62966143472111   -0.21963557417103
H           0.22896674178317    1.15364302202137    1.38901701640451
