    26
        -50.45634903  Gyration_radius:  2.66562946032 Dipole_moment: 5.724
 S          -0.57669526575882    2.51478174844555    0.82839487002383
O           0.76414515581104    1.97698130600291    0.84402443378198
O          -1.04873455742542    2.91687596576509   -0.47936259134581
O          -1.51997360184317    1.61525551162417    1.50416148892490
O          -0.54838004260878    3.84702971338494    1.70268034058755
H          -1.28139124991238    4.33524813761330    1.34046054757823
O          -1.54313971330842   -1.50612662520285   -0.89104960824298
H          -2.44513366353304   -1.45442449115692   -1.20961689156974
O           2.12828609495302   -0.75417169318737   -1.30585707118717
H           2.74292958048799   -0.56588284620938   -2.01546069571612
O           1.84208083451109   -0.35673402381536    1.38801325774781
H           2.11995710589062   -0.58271047082489    0.48423965268672
H           1.62806408358939    0.59952788871094    1.32710013518578
O           0.60933338402960   -2.93930086745070   -1.79052639315898
H           0.72861003729753   -3.66900581224001   -1.18083186465711
H          -0.24281221409700   -2.52013832936755   -1.56683087157607
H           1.63312021189679   -1.55996980665324   -1.56572844792509
O          -0.33316403673188    0.64634010605888   -1.60057445633282
H           0.60152283495830    0.53000657569593   -1.37649341827471
H          -1.10192460322615   -0.65135738417010   -1.20022005048994
H          -0.60763608357438    1.51847550724042   -1.24317711808008
N          -0.71709487057237   -0.82130210853631    1.61583783568348
H          -1.09218505588698   -1.25057277001409    0.74970409558954
H          -1.02560347864833   -1.31341123105410    2.44611624520916
H           0.35441760885860   -0.75693942707205    1.56517641644204
H          -1.06859851510027    0.20152543644088    1.62982014907646
