    26
        -50.45634899  Gyration_radius:  2.66524792503 Dipole_moment: 5.740
 S          -2.07620378700251   -0.54090607942998   -1.65395022937096
O          -1.76707303543211    0.79769454093831   -1.20698398476970
O          -1.21436679305040   -1.03975539268548   -2.70411982360628
O          -2.16728515068515   -1.47321677319419   -0.52337618168179
O          -3.53796843734443   -0.48684129189706   -2.28755568552846
H          -3.52121697877698   -1.22690381343431   -2.88670027061588
O           1.52749794066267   -1.57509040341479    0.80268540371487
H           1.74318361352928   -2.48574207063824    0.59782487316089
O           1.56012047641270    2.08597817987247   -0.10747591403683
H           2.06699947030815    2.67874858878238   -0.66288127781558
O          -0.92113216797801    1.87957790936503    1.03303028965186
H          -1.39733836947943    1.66836572310255    0.20082087425757
H          -0.03339545184147    2.13025216820369    0.72629210801491
O           0.97625325618345   -0.37902632690414   -1.40403301858942
H           0.19640065540721   -0.63558762935123   -1.94203616772833
H           0.88032015124084    0.56194207922454   -1.19692442260160
H           1.32994516387365   -1.14141124256359   -0.08786476138303
O           3.11990368949833    0.54750643894478    1.47827234562493
H           3.01000941042467    0.68478230264871    2.42035171232785
H           2.68126449703943   -0.29680813683078    1.26239681025698
H           2.20533965479027    1.58146915252976    0.43228143399066
N          -0.92675958249325   -0.67389618840330    1.57793081658638
H          -0.89121088892957    0.39596274450359    1.48306728798667
H          -1.36740161665759   -0.96037169506642    2.44421741971674
H          -1.49965174605016   -1.02152374649187    0.72879185554161
H           0.02376604634855   -1.07519904781345    1.47593850688194
