    26
        -50.45450922  Gyration_radius:  2.452030768 Dipole_moment: 5.291
 S          -0.39771652233011    1.67246994190817    1.18636625685617
O           0.67573432615781    1.11369071264832    0.38472099516248
O          -1.50613385156975    0.61972131296585    1.35560631398043
O          -0.02674803353999    2.13511943660068    2.47453598613776
O          -1.05997697110677    2.79600178492602    0.35962631446824
H          -0.73032131386449    2.73276041980555   -0.58810667925125
O           0.31326058646612   -2.54331799705373    0.51826714283979
H           0.14905451521476   -3.42256390183584    0.86139789527329
O          -0.38303569352904   -0.12313402194256   -2.73916909287913
H          -0.34726251288717   -0.45236921487170   -3.63796140516053
O           0.02278148376753    2.44840606320125   -1.95184347999636
H          -0.27176294422090    1.59291969050321   -2.32416854924388
H           0.88609946674448    2.27130562283999   -1.56384847378141
O          -1.69830281450935   -1.04812537203128   -0.53008773800932
H          -1.62798688393716   -0.01464500285632    0.55503449527023
H          -1.37068398265645   -0.68451077750401   -1.37302075671685
H          -1.02107642923692   -1.68566810980955   -0.22132973935980
O           1.61960816054715   -0.83056434558129   -1.23144138602101
H           1.34770796989415   -1.62175960102349   -0.74250912839952
H           0.45006110912950   -0.42967529945298   -2.27846419401740
H           1.46507612911612   -0.09812773535850   -0.60943586688788
N           0.73874871708034   -0.85379437540257    2.53723168571904
H           0.49590933164793   -1.95531061585400    1.30736877229321
H          -0.15523578807554   -0.59602852484775    2.93985727099444
H           1.39206087654118   -0.98275197079886    3.30102137639260
H           1.04014104915609   -0.04004811917636    2.01035197433734
