    26
        -50.45634944  Gyration_radius:  2.66544814955 Dipole_moment: 5.727
 S          -2.13773020132994    1.61675913140981    0.39684471420665
O          -1.07554257148192    1.94010261077545   -0.52739772425205
O          -3.07138196612511    0.62062005843236   -0.08343108190599
O          -1.60682470088109    1.28168039557334    1.72418367442280
O          -2.99272804092593    2.94660179845733    0.59758569745842
H          -3.83564611954024    2.59916698129237    0.87266947668366
O           0.31285531340249   -2.08013249856057    1.00695283428194
H          -0.22976627204793   -2.68538185345298    1.51387936900902
O           1.21080092776146   -0.44426197533447   -2.26931534180615
H           1.12219544885161   -0.62494251522659   -3.20540179863363
O           1.53779199908048    1.66470199594450   -0.55379875849370
H           0.61768046792086    1.99892955860573   -0.62723380493418
H           1.58775032183801    0.98962861100972   -1.25155177323922
O          -1.16548075650379   -1.03797219247956   -0.81710413474238
H          -1.91939879156931   -0.45591107399008   -0.57881782582536
H          -0.58118115736630   -0.52294940654545   -1.39215050677346
H          -0.29987080707931   -1.70373561432465    0.29690605788381
O           2.23296261232169   -2.53488774925345   -0.89059612370078
H           1.55948105716029   -2.52791935584253   -0.18470530883024
H           1.59308786885403   -1.24937039179633   -1.85982181417934
H           3.07857898126118   -2.37386025734475   -0.46935493610458
N           0.84131860207169    0.50818059167689    1.68154438368708
H          -0.17499325488391    0.87275136413428    1.74619290948715
H           0.77923839168944   -0.51979051842151    1.56017854713521
H           1.25521444905076    0.96206958751074    0.79992457950028
H           1.36158816846247    0.75992269774757    2.51381869965522
