    26
        -50.45376617  Gyration_radius:  2.45999480088 Dipole_moment: 4.199
 S           0.69942758561505    1.26149131791461    1.35748793011512
O           1.05446406604675    0.32407967071367    0.32492184028565
O          -0.79360258762140    1.62048241766002    1.19731058834030
O           0.96661742006988    0.83213131286496    2.68994794608570
O           1.41213040448592    2.60604052334568    1.09574779857231
H           1.12950482843552    2.83504635406305    0.17078940678674
O          -1.02135104193294   -2.30194161904053    0.07901170835275
H          -1.69289624304005   -2.94539197157993    0.30984505788873
O          -0.20849287431904    0.63715498593776   -2.66088479617144
H          -0.17350153340130    0.65028779109477   -3.61817256139652
O           0.27011680331403    2.90260315823022   -1.21688389532205
H           0.23422046633929    2.07727415224525   -1.74288305429528
H          -0.62916499720902    3.07093499272711   -0.92291398304942
O          -1.87772476549474    0.16730127533135   -0.54697881906032
H          -1.60658973875137   -0.74922906990652   -0.31414981477735
H          -1.26420785207747    1.01727070176166    0.49790125820223
H          -1.40412185991829    0.37289610803587   -1.37326468135868
O           1.00765588227849   -1.45044402532810   -1.65713764680721
H           1.31219703267015   -0.89427560313617   -0.92077142495796
H           0.30369285136527   -1.98536155690106   -1.26219366426728
H           0.31975212369520   -0.15751422635138   -2.36417647453441
N           0.42906564468350   -1.98718363601268    2.27897462808420
H          -0.46009422055267   -2.16527515040736    0.90122163093621
H           1.33723036804048   -2.41559046353087    2.14270080602897
H           0.59610334440426   -0.98818196880038    2.39800895153882
H           0.05956889287333   -2.33460546092974    3.15654125478187
