    26
        -50.45592095  Gyration_radius:  2.62483859321 Dipole_moment: 4.124
 S          -1.43636439323197    0.41895768496479   -2.20826492994799
O          -1.50876464418668   -1.03911518093667   -2.37256109606240
O          -2.50390898998088    0.91220130831300   -1.35517762360610
O          -0.12555066807425    0.84413520795867   -1.78426543913615
O          -1.68729652073910    1.03424438113233   -3.65121061006977
H          -2.60216361728805    0.82689482632298   -3.81945340216373
O           1.12443021907963    2.01848813336264    1.55617443443520
H           1.18827656064043    2.81639578216910    2.08122381968399
O           1.82950308455424   -1.65137781828159    0.64433553849682
H           2.60220041901448   -2.20010469750308    0.50861837907662
O          -1.31587135597493    0.68260784399055    0.95609775219056
H          -1.86216477898373    0.90753787423041    0.16475299227986
H          -0.54473224799874    1.27262644317251    0.91049299491406
O           2.19856961437471    0.58803216466960   -0.55028749518479
H           2.01935896107555    1.26056202531041    0.12584468827820
H           2.02153393668674   -0.77799692525172    0.16156382387512
H           1.43980723334268    0.66867875731930   -1.16177309383599
O           0.82383264424130   -0.30145378828249    2.85682885491003
H          -0.12079004037841   -0.28128844052453    2.67497796773626
H           1.22810446449889   -0.88111738191583    2.18796341007937
H           1.14872693060183    1.25714787497550    2.17902876375745
N          -0.77968262438474   -1.70727031212698   -0.00973616251233
H          -1.33125970875692   -2.46641136353954    0.37574474325591
H           0.23944458424488   -1.88122243452132    0.10761427317650
H          -1.03907260226333   -1.54233282315675   -1.04577693007902
H          -1.00616644973438   -0.77881912197021    0.46724434641918
