    26
        -50.45592080  Gyration_radius:  2.62475136477 Dipole_moment: 4.125
 S           0.38048209107084    1.77002308419895    1.95872388746393
O          -0.56623665682137    2.65622734608620    1.26835910992289
O          -0.30466233457074    0.85030862180149    2.85066140040478
O           1.26770995953002    1.11111309332353    1.03271469193971
O           1.27217972201718    2.71260603010789    2.87518453400686
H           0.65587830677301    3.02215636682113    3.53296692660560
O           1.34929435303730   -2.42890959209565   -0.21619928316920
H           1.69464055074101   -3.28897518697928    0.02340468328481
O          -0.28766121829028    0.17526025721416   -2.52491638136868
H          -0.13144402093436    0.52351887908271   -3.40292105263390
O          -0.75084453829804   -1.09081503290832    1.16553273976183
H          -0.58421817239204   -0.49252954470495    1.93335480225448
H           0.12801582066524   -1.39560297134316    0.88375130058438
O          -0.95469929668716   -2.35138953820283   -1.57634174026532
H           0.58105486005375   -2.57911450083455   -0.81234966288689
H          -1.42772352919745   -2.14889802824314   -0.76333297889992
H          -0.80793297892117   -1.50631934611603   -2.03582413623254
O           1.95507977057530    0.04536450055515   -1.28722780043777
H           2.00288268551131   -0.86684900952200   -0.95981766527142
H           0.62321092699661    0.13633399177336   -2.07609329667904
H           1.81972636265419    0.57414187568464   -0.47591182800366
N          -1.60703992668502    0.92087912350468   -0.30200083983911
H          -1.20021929009178    1.74327155477048    0.26896281260575
H          -1.16268154910542    0.84777405589894   -1.23999405647516
H          -1.32966349475302    0.05324699797658    0.25559810564851
H          -2.61512841286217    1.00717700217381   -0.37628427231265
