    26
        -50.44612508  Gyration_radius:  2.48617247401 Dipole_moment: 2.149
 S           0.59901370286394    1.09889719915123    1.85121658194870
O          -0.36969698746972    0.62365791823045    2.80650784375949
O           1.85532971189302    0.33362138308408    1.89422479279600
O           0.11398592704434    1.20105492641226    0.49479974708588
O           0.98343841973432    2.57747377959054    2.29829062010123
H           1.14527714752937    2.48421709004570    3.23222577248797
O           0.12189420421992   -2.17428518596676   -0.45979442384063
H           0.31042514159380   -3.06779304984808   -0.17015733172688
O           1.55338538261609    0.90194273095521   -2.28700899364630
H           2.04457320635401    0.68845992208127   -3.08266067724248
O          -2.19604275081577    1.09561682556954   -0.73060210900610
H          -2.41737864179485    1.98156834175810   -1.02127874073445
H          -1.35557751650684    1.18287415663200   -0.22232381431626
O          -0.72661231828368   -0.37084068836556   -2.48042899076685
H          -1.36484456620728    0.14417680921961   -1.94617578982379
H           0.63587221583442    0.52786945403142   -2.41101200804074
H          -0.52220520908464   -1.14809226893079   -1.94353748279820
O           2.16030396537049   -0.61908376408604   -0.34399039946051
H           2.08566948525427   -0.16587348805895    0.63076693633343
H           1.36476061358988   -1.25918241975461   -0.39060869488925
H           1.96209615751023    0.10361024840085   -1.05592265609672
N          -1.66534551748433   -1.22803359275618    1.13019669120547
H          -2.26717597737604   -0.63812321332938    0.56471328893172
H          -0.59358034402756   -1.79672645447583    0.19137578988740
H          -1.20243578270887   -0.61038693661227    1.80173395305158
H          -2.25512968941186   -1.86661973272543    1.64945010482691
