    26
        -50.44612507  Gyration_radius:  2.4861862817 Dipole_moment: 2.149
 S          -0.66820440755668   -1.46287161500723   -1.55146364299244
O           0.29305656887997   -2.44812288235790   -1.03080407480963
O          -2.02074209339585   -1.73955122528777   -1.13783795762188
O          -0.21363093054047   -0.11912054369645   -1.28066086516985
O          -0.63838903852435   -1.63162686347493   -3.13401239212809
H          -1.08560675256553   -2.46149236988725   -3.27003313142450
O           2.63424744483929    1.05349043782555   -0.63764958605397
H           3.51131220341403    1.30722959330944   -0.34393206399880
O           0.37596555928424   -0.30960751621746    2.17177001149334
H           0.34441807975918   -0.88168217180128    2.93957718273942
O          -1.27665833383354    2.15380077623226   -0.53711125646935
H          -0.92833158780684    1.29266721144995   -0.86796979970302
H          -1.27006511665936    2.74430877349560   -1.29186755770698
O           0.95681485946459    2.21183161343679    1.00552258523791
H           0.12573115149965    2.32493824928891    0.50104015466726
H           0.78551876702188    1.47405655685524    1.60593652721839
H           1.98791352816221    1.59180363601571   -0.09947893572986
O           1.91174540518179   -1.18957763129181    0.31317033639627
H           1.25266358139342   -1.76195186718878   -0.31865786907143
H           2.19570001675720   -0.33754004905185   -0.19844267983980
H           1.31321655462039   -0.85401689679883    1.07075416768748
N          -2.01000784043820   -0.19818516182923    1.21641419792326
H          -2.13438893722472    0.74693258012178    0.86820954387297
H          -2.05863346817875   -0.81566031491555    0.40211239695680
H          -0.58817711173886   -0.27646525366782    1.78739755516584
H          -2.79546809182355   -0.41358706557176    1.81801717336273
