    26
        -50.44612512  Gyration_radius:  2.48601350876 Dipole_moment: 2.148
 S           1.43476867875811    1.42757634218962    0.94563458183872
O           1.04407492171182    1.36877530493989    2.33156560260459
O           2.54549351871658    0.51391436972662    0.63371075630123
O           0.35472836424930    1.25293942244026    0.00293266271033
O           2.00534491580244    2.89335286007315    0.70111852326974
H           2.59824911386575    3.01808019048556    1.43599733660188
O          -0.14466343731244   -2.21072335477568    0.20959027896491
H           0.14880082230031   -3.01866480880416    0.63254924035387
O           0.26425618597630    0.03434060897142   -2.89610674850855
H           0.30574155658305   -0.44919241767850   -3.72336696996098
O          -2.26098691329434    1.20108325570194    0.06841066955693
H          -2.58308634795501    2.00679796220576   -0.33835336329041
H          -1.27840776898757    1.28265919221339    0.08249065568892
O          -1.84097725869177   -0.87373241957080   -1.63175274135180
H          -1.41256337413074   -1.51003135217399   -1.04377051066559
H          -2.13426713045730   -0.14648247610285   -1.04599429264120
H          -0.60343523115484   -0.21103937552326   -2.46705211331494
O           1.71555206108694   -1.01538252773253   -1.09356609848637
H           2.12845285088121   -0.32204648479815   -0.37965197647306
H           0.98838331179418   -1.51364685324757   -0.57621431494404
H           1.20715799391330   -0.47677801639837   -1.81460592052582
N          -0.92628327086224   -0.62370883907684    2.07724395308566
H          -0.45051196933092   -1.57273697700766    0.96984070001172
H          -1.19881229035992   -1.00886043838767    2.97313965655540
H          -0.18800107196830    0.06514016746612    2.24217830067484
H          -1.71900818123067   -0.11163333504202    1.70403213193647
