    26
        -50.45450922  Gyration_radius:  2.45197050163 Dipole_moment: 5.292
 S          -1.44943835934003    1.13645704456438    0.98511188687293
O          -0.02961406902393    1.17293650045174    0.68512757226884
O          -2.00980226950086   -0.24923313019767    0.62261099636307
O          -1.80136572465613    1.41801840538863    2.32966925272938
O          -2.15647836089822    2.10231619718803    0.00952203279252
H          -1.50645836353290    2.35989030731214   -0.71294385558841
O           1.10603885809374   -2.31895795853528    0.48268737936038
H           1.20062087387618   -3.25089905905805    0.68345408673492
O           0.73747835759869    0.32899872939700   -2.64829159055465
H           1.23187565496563    0.23004181661612   -3.46269181552268
O          -0.25914749156855    2.65217743010036   -1.64405031580086
H           0.39172043152204    2.71243012453022   -0.93691178612957
H          -0.02017501511228    1.84653329087807   -2.14511153773448
O          -0.79852596282324   -1.44136885036370   -1.24424065353324
H          -0.08643016449825   -1.84995205268043   -0.70903543223967
H          -1.55921365999118   -0.70232337750537   -0.18359483400738
H          -0.36250171962228   -0.81731503530461   -1.85295432729502
O           2.14502342535770    0.07054616039051   -0.47198528705750
H           2.05959872655178   -0.84964507369710   -0.18050680780027
H           1.38941755204020    0.24545524188367   -1.89445615610418
H           1.48887414183368    0.55359420066005    0.06038843317917
N           0.03182371325861   -1.05293388689996    2.56934984143472
H           0.72907895146612   -1.88435094059469    1.30177674651572
H           0.14713139578755   -0.09359377947488    2.25779809628276
H          -0.96875097528202   -1.21620831356107    2.56889086747055
H           0.34922007349553   -1.10261397148178    3.53038720736413
