    26
        -50.44612506  Gyration_radius:  2.48616894518 Dipole_moment: 2.148
 S          -0.71031305610293   -0.57451083244136    2.03933200905562
O          -0.59455913978191    0.67003922713970    2.75675447888082
O          -2.06329309789792   -0.79203619253980    1.50277996323468
O           0.28178867957407   -0.77563525491244    1.00933352046623
O          -0.48282918740135   -1.73232781519454    3.10768394119313
H          -1.04525929807853   -1.47127766006048    3.83061313687445
O           0.19823922233154   -2.33476097219522   -1.72240967404186
H           0.05163860566402   -2.73832991233238   -2.58004603517206
O          -0.94581967194599    1.33893791424501   -1.50540446629282
H          -1.64200660287386    1.95465027192676   -1.73779096724231
O           2.52401389871799    0.34573338646519    0.25843197863312
H           3.24229440956171   -0.24453310040871    0.49089483979517
H           1.70549308728653   -0.07755311603883    0.60942357097241
O          -1.81594871814079   -1.00533124200610   -0.92701706337594
H          -1.01702008121264   -1.62611247654824   -1.13873036901495
H          -1.95000243517180   -0.97599481184563    0.14172215240289
H          -1.49163149777235   -0.06712153942732   -1.17058905270202
O           1.42248940589309   -0.06775977569878   -2.18846020599051
H           0.66605780455574    0.53288643222496   -2.15411875214621
H           1.93710766264588    0.12782046374316   -1.37919856224848
H           0.77668834143672   -1.53611385374675   -1.87965480791158
N           0.21707029167656    2.27232567042780    0.59082639798078
H          -0.12438282941878    1.75420664383862    1.40429353759927
H          -0.48705236794075    1.71812652937661   -0.65440285632571
H           0.14578553102786    3.26074628948351    0.79867214041010
H           1.20145102632223    2.04392571094013    0.49706114697852
