    26
        -50.44612511  Gyration_radius:  2.48611441436 Dipole_moment: 2.148
 S          -1.47636421795887    0.23334951408428    1.66069590726069
O          -0.47678201482151    0.98140606400006    2.43986302147349
O          -2.46569289048897    1.09316130188490    1.06165313894566
O          -0.82826452913729   -0.67592095993695    0.74482023346578
O          -2.24898626638271   -0.67427837434336    2.71576448525320
H          -2.77857785118685   -0.04359083508672    3.19424692516442
O           1.37101320344819    1.50491160940369   -0.89935237111112
H           1.67187448952282    2.41246209815087   -0.95951096145235
O           2.05697091067120   -1.93006019605200    0.70825118988754
H           2.98327842202591   -2.17860799569300    0.71599649964723
O          -1.17537136186473   -1.49265203343973   -1.71726102033699
H          -1.11542613471776   -1.19882772524864   -0.77791057274221
H          -1.48993056180414   -2.39737893675435   -1.68723598699730
O           1.70051744672146    0.47999565642204    1.43055197307433
H           1.76982674612502   -0.53506433176925    1.24805013766198
H           1.58775553314147    0.90587002633992    0.50825552534006
H           0.76689612857383    0.67209561652687    1.93297428876594
O           1.52363258867129   -1.19903564513690   -1.74862770620394
H           1.81271948363224   -1.77449252708912   -0.24743774296787
H           0.56591956868202   -1.35890249611950   -1.87197120233273
H           1.60602532489672   -0.24088590721311   -1.65226035969883
N          -1.15393522182045    1.51406823960639   -1.39180844905054
H          -1.55465854826536    2.28446859645871   -1.91253036624232
H          -1.65428517869596    1.44131362435358   -0.50235844816595
H          -1.34860598668000    0.65856913103375   -1.90186337020410
H           0.35045090798715    1.51802647569641   -1.09099475847114
