    26
        -50.44612511  Gyration_radius:  2.48607138964 Dipole_moment: 2.147
 S           0.22881634364396    2.05993865805783   -0.83427211922529
O           0.94271783336684    2.47090468676662    0.38526225627867
O           1.11853155286120    1.83459203259692   -1.94534494729938
O          -0.67453336010464    0.96971117383750   -0.54959311262154
O          -0.68431750876058    3.30102891339920   -1.23400546491136
H          -0.05327080734790    3.93572770951585   -1.55970901466658
O           1.49568720368824   -1.28603337171561    1.03072756325421
H           2.39822316530266   -1.43242458124520    1.31673122285217
O          -1.98234492734227   -0.03990552991839    2.12766637963523
H          -2.24855027589430   -0.34404955094475    2.99744382498690
O          -1.43589432062576   -1.24605381628261   -1.71571695744110
H          -1.16182274843772   -0.37675867563337   -1.33953306138415
H          -2.33473165171636   -1.12396559133086   -2.02484722132393
O           0.41949774612558    0.78906782486398    2.09062711684949
H          -0.59291184769620    0.58161870726441    2.07045751746776
H           0.86539213970512   -0.03796784681910    1.68828325368118
H           0.61960065412692    1.57568310312959    1.38192722850478
O          -1.19343757196483   -2.17025411576992    0.82579944901835
H          -0.23909514765134   -2.09503767863889    0.95894643801194
H          -1.80354573904855   -0.85774620004342    1.58334583937846
H          -1.33259594128191   -1.96982930821169   -0.12207235925363
N           1.56267347372100   -0.91017107284204   -1.51330801748166
H           1.48200335487253    0.09412545060227   -1.69124353590286
H           0.72119098380669   -1.33677336973984   -1.88730469397968
H           2.35062230078318   -1.25843831466392   -2.04538494173126
H           1.53209509607720   -1.12698923631348    0.00511736736249
