    26
        -50.45803547  Gyration_radius:  2.5496120369 Dipole_moment: 6.273
 S          -1.07272954189533    0.23210953518462    0.27822257835578
O          -2.07976983186645    1.07707821679886    0.91455698449362
O          -1.39375641251313   -1.17439776599025    0.26269361183576
O          -0.73070120542548    0.75472484343597   -1.05593415895104
O           0.21485213762106    0.44257128004889    1.14413859482635
O          -0.80226892802370   -1.54098274050863   -2.38335654551462
H          -0.76598579575927   -0.60794356191460   -2.09612463333523
H          -1.29511862852830   -1.96138546215835   -1.66955891026122
O           1.74849361410806   -2.04739293238494   -1.82815843735143
H           0.80223033672864   -1.94207611063288   -2.09358756293383
H           2.25878240439951   -1.53623992146034   -2.45727245780316
O           1.07369373797754    2.97601343753326    1.52190561947655
H           1.14004096668449    3.15146893735094    2.46211808775522
H           0.91922051493624    2.01317033080371    1.43564140388800
O          -0.05204288040834   -3.16821327306070    1.43559276409025
H          -0.12992415094614   -3.89871166159415    0.81873315690609
H          -0.66178807807151   -2.47422167507429    1.11339506143477
O           1.84485430176995   -1.40760977963789    0.76094062332446
H           0.91814260360573   -0.31917589903604    0.97197603705523
H           1.33473425624745   -2.14703932765132    1.15927326026324
H           1.89128780934966   -1.62281843968137   -0.20059274237422
N          -1.03497526921217    3.10889769317158   -0.11153452650626
H          -0.20928170338915    3.35880313779974    0.47398859313603
H          -1.66293469421533    2.43553592731505    0.47277946914467
H          -1.51135367424343    3.91088284735612   -0.50827670125590
H          -0.74370186893733    2.38695235398645   -0.82155915969075
