    26
        -50.46254248  Gyration_radius:  2.39819602472 Dipole_moment: 9.371
 S           0.89482012032609    1.05108346456162    1.33974829878446
O          -0.54591376328623    1.32459710325078    1.08668832544216
O           1.44103254786571    0.26237823483801    0.23775129401172
O           1.62669061851711    2.22909499554372    1.65721561646107
O           0.89771670563035    0.08132229865479    2.58371453497875
H           0.59972393562251   -0.78259779814447    2.24408267800426
O          -0.02653409275758   -2.30096601793776    1.57661232820129
H           0.36895336059657   -3.03015956581271    2.05622327150324
O          -1.18289834011775   -0.62454128645834   -2.07864158963443
H          -1.65147665337854   -0.62892181022042   -2.91418959207540
O           1.99671766922998    2.46287143214975   -1.15710887578598
H           2.02880724969150    1.57155242997530   -0.76937487832251
H           2.07015963467285    3.04261115104665   -0.39221085725335
O           0.89343400881607   -2.05910478988529   -0.82789087162250
H           0.21712774757748   -1.77540897408134   -1.45984651519148
H           1.30994173003235   -1.21833345338221   -0.54224965915142
H           0.37505568194489   -2.31456899832555    0.65316051021701
O          -0.59610606945088    1.83664938702774   -1.54893966907354
H           0.32084829779995    2.14576713796120   -1.69778676254139
H          -0.87133803034433    0.32668779249922   -1.94572640250256
H          -0.67285599959839    1.81985334065191   -0.57662682154021
N          -1.93337124381860   -0.70837526452560    0.49598851910662
H          -1.49406837559826   -1.49746042778948    0.99014353749267
H          -2.91441811970684   -0.61202138263221    0.73202106671776
H          -1.36421918579226    0.19678408974823    0.79465880950757
H          -1.78782941447497   -0.79879308871415   -0.53741630573335
