    26
        -50.45450921  Gyration_radius:  2.45202786937 Dipole_moment: 5.291
 S           0.51315914866017    2.02279024489547   -0.08508926763344
O           1.67214227436240    1.20013750442949    0.50278193930259
O          -0.64939506296211    1.16816747376187   -0.24386370241573
O           0.32727199073551    3.16917148772909    0.72867324591472
O           0.99956945431924    2.41432656952742   -1.49740271413778
H           0.53108192557889    1.83196946392596   -2.16990265085190
O          -0.13645524078064   -1.74376967784740    1.94314636591851
H           0.11049229129834   -2.26748705779145    2.70635554008481
O          -0.03699961991261   -1.71513329745711   -2.17305286120556
H          -0.19778872919577   -2.50254263857445   -2.69423995047929
O          -0.41098600469964    0.85379113115322   -2.98463286499182
H          -0.14595630817330   -0.07457141484078   -2.82588905258265
H          -1.19786678556393    0.98773414761539   -2.44608851895586
O          -1.75745324282720   -1.29263296496473   -0.26363901539027
H          -0.77792495067019   -1.64615125873689   -1.50484655801976
H          -1.38469252577796   -1.66655984156099    0.54889572307230
H          -1.53649774180045   -0.34596645014380   -0.21640140570929
O           1.63428046950737   -1.26080045031989   -0.05995124270881
H           1.16810275942154   -1.43600696075470   -0.89788084661018
H           1.69321025655137    0.21279196164916    0.21492671742189
H           1.03634277000291   -1.55804256715999    0.65732414888620
N          -0.30987719680333    0.82635920697208    2.63310546257893
H          -0.71821653815668    1.19906148420523    1.78169866936943
H          -0.21751172462738   -0.79690626418964    2.25729210500992
H           0.62512326961253    1.21600914522758    2.67442697949592
H          -0.83315492809881    1.20426103324921    3.41425376463641
