    26
        -50.46254247  Gyration_radius:  2.3982034906 Dipole_moment: 9.371
 S          -0.66931640705003    1.11951709674411    1.41391328166240
O          -0.97778258960704    1.11600591100359   -0.01424378056329
O           0.60738023151446    0.39122575064112    1.64674558040050
O          -0.68673903484347    2.40172803829397    2.03016901428995
O          -1.76978915635442    0.20456184182185    2.07704981574712
H          -1.87578220101902   -0.55611981020319    1.47652810414440
O          -1.95772028194354   -1.94962043129066    0.38349157555879
H          -2.85256044214665   -2.29214328901600    0.39371843435300
O           1.44269781792004   -0.87617960811686   -1.80589315824625
H           2.15214659461923   -1.04660149705867   -2.42659587958579
O           0.47022119395976    3.31746464379599   -0.40598702457799
H           0.38413274891494    3.64762487447252    0.49409684291184
H          -0.21567672661547    2.63021696270316   -0.46149542604291
O           2.12917609332886    1.19227727713132   -0.41571408011930
H           1.72196248781434    2.05776086766437   -0.62467028115049
H           1.72845966093227    0.95623501471979    0.44178127738241
H           1.68139568341363   -0.00697212042250   -1.35085880208577
O          -1.37021537406310   -0.73062332372045   -1.82001185632264
H          -1.82400626225639   -1.52547741576575   -0.52007617348036
H          -1.33535728911272    0.10279433881106   -1.30411380531799
H          -0.45116645693873   -0.87003482574182   -2.09047757214836
N           0.74427871445102   -1.89769306341309    0.57479971779587
H          -0.22065450683766   -2.25625204476254    0.56159064376741
H           1.06630316716043   -1.68150933861460   -0.39826776081021
H           0.70109952373934   -0.91759637754242    1.09443230538623
H           1.37751280101993   -2.53058949213365    1.05008898705173
