    26
        -50.46254256  Gyration_radius:  2.39822399745 Dipole_moment: 9.374
 S           0.09157645048384    1.79872243499279    0.67569448692477
O           0.38038739971806    1.27553872154418   -0.65755171490763
O           0.10479909574096    0.68236004705440    1.65965594434738
O           0.90427025437092    2.89375588088766    1.08141035703200
O          -1.41668828913338    2.25723753046436    0.62252955631544
H          -1.88531051362037    1.56172286991456    0.12537492881964
O           0.62864590954610   -2.32559995743591   -0.55446794449721
H           1.05972699191234   -3.17785380406515   -0.62840816579717
O          -2.68700770267713    0.22230832927433   -0.71505490496827
H          -3.42791084817690    0.57434837244255   -1.21034365001648
O           3.00379906290070    1.51734067163435   -0.26217694295609
H           2.93463415596787    2.21933757266872    0.39275451378164
H           2.11976514107478    1.49781079795791   -0.66703936265126
O          -0.71750957254152   -0.50178123696424   -2.22617266356495
H          -0.20169836085420    0.23919492584814   -1.84290887708098
H          -0.26352924419289   -1.29054225946762   -1.89604194710569
H          -1.99524445850085   -0.05401739943944   -1.39279601652576
O           2.18566550719480   -0.80353402987539    0.83903654895380
H           1.29800194964471   -1.71977606542628   -0.10227246354901
H           2.72604342998380   -0.13095847213999    0.37631735035626
H           1.51820788545749   -0.27058733849702    1.31024997710005
N          -1.29852891779762   -1.32527637136191    1.02186027348705
H          -2.08159902183076   -0.95173489828827    0.46772417809121
H          -1.62026395051604   -1.86415465951835    1.81783355108058
H          -0.65154716570443   -1.87896782033421    0.41189826790640
H          -0.70868516844979   -0.44489384187056    1.35289471942451
