    26
        -50.46254256  Gyration_radius:  2.39822369801 Dipole_moment: 9.374
 S          -0.14475992616617    0.37721365729660   -1.88071650389657
O           0.64471312328231    1.03756177177335   -0.84372649256317
O          -1.22397177708808   -0.42667326520703   -1.24534952770724
O          -0.63423701992695    1.23687340464031   -2.90324865386640
O           0.82137612755656   -0.69547285281963   -2.51621439500785
H           1.29983663930035   -1.09493180022826   -1.76653664155323
O          -0.47073563267581   -0.01117963622501    2.42679741508339
H          -0.85509787242408    0.09327275408370    3.29799796772777
O           2.07290776432106   -1.83299016186807   -0.35206384771385
H           2.95745485935663   -2.10746240289616   -0.59787283427620
O          -1.02047228668285    3.11657798352696   -0.79963674727897
H          -0.22485271581548    2.55832990197549   -0.76565105501897
H          -1.33615386605391    3.00176523625219   -1.70167911931940
O           2.05440479906617    0.23280526321378    1.20320657001640
H           1.34782827651154    0.19676616140604    1.86402421829896
H           2.17942433534342   -1.04902265696245    0.27105261307243
H           1.65381213225995    0.73758613574310    0.46380033703095
O          -2.04917812565219    1.16685311900319    0.75239433908233
H          -1.79792875229162    2.04754206046781    0.40636016815424
H          -1.93812208502268    0.58155507552004   -0.02004932813556
H          -1.04298639544813    0.54468846054433    1.80786570027112
N          -0.45853356833723   -1.97836802613276    0.60209741628453
H          -0.82189887893138   -1.34206628483273   -0.23196690131411
H           0.50144121437450   -2.25425720070596    0.35283458063066
H          -0.45191239910188   -1.35493325954619    1.44381790487033
H          -1.06235800975592   -2.78203343802504    0.73246282712624
