    26
        -50.46151543  Gyration_radius:  2.41385949737 Dipole_moment: 6.714
 S           0.80635170912985    1.10939191052989    0.13009243167095
O           0.80051807655723    0.45759015311935   -1.18630077662592
O           2.16992623330648    1.38375631198198    0.57105151094242
O           0.06092685531770    2.43475295267886    0.03038726929418
O           0.12160864239778    0.24458346144042    1.10222754136886
O          -1.55496742793496   -0.01847889030141   -2.21916201738716
H          -0.63732424334662    0.14262070737622   -1.89206655949713
H          -1.54031667983093    0.14771030290172   -3.16262870644823
O           2.35697846246009   -1.64834095567780   -1.02779864606813
H           1.72355406694461   -0.90328042654540   -1.17646633038516
H           3.08377718775182   -1.49718871143100   -1.63472878011607
O          -1.54957314559102   -1.69163655580789    0.08590520926182
H          -0.85253016636342   -1.08558590322565    0.38548815363618
H          -1.73719064797908   -1.43224337952323   -0.82327325072458
O          -2.59314327453964    0.30456497787699    1.70209851614326
H          -1.64599535302941    0.42508535890805    1.86235975010025
H          -2.64622042119580   -0.56803374986515    1.27762601337976
O          -2.34388278540877    1.86909173321280   -0.43006196257013
H          -2.26942854190928    1.19590465688308   -1.13444892769105
H          -2.61508587946376    1.38030972884424    0.38663424536137
H          -0.94875253074335    2.26483488697072   -0.16085548383136
N           2.39673581785210   -0.94436948451142    1.50435480145493
H           2.51798814423256   -1.47012108410579    0.59746051181078
H           2.55701848771241    0.09723296486331    1.23178523396176
H           1.38086370428022   -0.90175115787710    1.70801401335109
H           2.95816369944141   -1.29639979865255    2.27230626956445
