    26
        -50.45634924  Gyration_radius:  2.66557204739 Dipole_moment: 5.736
 S           1.73044829856002    2.07128157216182   -0.23148613093598
O           1.75212792285112    2.30130701156847    1.19727192505340
O           2.47251010735108    0.86126890070379   -0.60710674443499
O           0.41178127814178    2.08362715026512   -0.82143335186378
O           2.53352639816803    3.28717341632622   -0.87628641655284
H           3.20357739483171    3.45121398240442   -0.21980741601611
O           0.39389807846062   -1.93780832128145    1.22861188048089
H           1.04528164107982   -2.21863091785946    1.87251293143349
O          -2.59028760156285    0.15825975311337    0.27992858174726
H          -3.32345527517006    0.59284933408670    0.71621319110349
O          -1.12073789243739    0.31974067772168   -2.02434796259665
H          -1.80044914530431    0.24877705041933   -1.33292701107600
H          -0.61977822791035    1.12426424498568   -1.76844354194377
O          -0.13671597916416    0.53466416557710    1.67690118708718
H          -0.87047711034475    0.77462753685828    1.09266392499600
H           0.20390719606440   -0.96926889657516    1.44684137468962
H           0.55836498083872    1.21831103998977    1.55983901039730
O          -2.29585349151192   -2.41895363253700    1.04933611211473
H          -2.56892019790189   -0.76418096598802    0.61231016962147
H          -2.41414630293411   -3.07375114277662    0.35967895951430
H          -1.33776528505709   -2.36141465627079    1.22385285056671
N           0.95461471634015   -1.09046988639467   -1.30114522683817
H           0.05682625731935   -0.62205378867820   -1.66060762342562
H           1.36692773614808   -1.69838391267602   -1.99912624729614
H           1.62848570669909   -0.27978624926803   -1.05984344424642
H           0.76630878643225   -1.59266345589265   -0.41340097158556
