    26
        -50.47166908  Gyration_radius:  2.41848891416 Dipole_moment: 3.986
 S           0.15337608324462    0.35126722361113    0.84601443021741
O          -0.16328067345852   -0.61611688126561   -0.21214489724641
O           0.39878799802566    1.67958948273493    0.28282888910067
O          -1.15273402764566    0.52006298336873    1.68270298198654
O           1.22188464720219   -0.11068075075136    1.69752915874457
O           1.10530936787283   -0.20517934944683   -2.54460728971919
H           1.92862303596418    0.10926322376825   -2.12504376215613
H           0.63480219311301   -0.64113715777932   -1.80899423082304
O          -2.47486264885679    0.38151536218763   -0.99031770292774
H          -1.70477156589402   -0.15900592487825   -0.70926711205330
H          -2.84383954320615    0.72660599576407   -0.17381411152644
O           0.61253099588864   -2.67005157937920    1.51466751259451
H           1.04651065264781   -1.80216231207139    1.64948073436699
H           0.28522297214575   -2.62991113402947    0.61040153346916
O           2.76572157633781    0.74430623879305   -0.61487047770895
H           3.06562012865711    0.16577505054179    0.09041938096765
H           2.03501929514566    1.24951610220499   -0.22304724293408
O          -1.35452993496588   -1.70599513947788    2.97739530470534
H          -1.29854222792036   -0.32121060030697    2.20778511181523
H          -0.68620945650367   -2.24044037040657    2.47504842136605
H          -0.99240498555120   -1.59176766456667    3.85885019887484
N          -0.52891164489496    1.78763854806653   -2.13557487691844
H          -0.13984045355801    1.94387293037819   -1.15779316466698
H           0.12146203005992    1.03881817618144   -2.54246890054697
H          -1.46787811506142    1.35996996367694   -1.96560145652694
H          -0.56706567874408    2.63545759303017   -2.68957840247194
