    26
        -50.45634926  Gyration_radius:  2.66555007759 Dipole_moment: 5.730
 S           0.93426498789209    2.08000568916085    1.46295496206814
O           0.69059361718836    0.98153163652264    2.40636035673160
O           2.24887300666373    2.00015900807504    0.86273622545827
O          -0.15036158567420    2.21191832821791    0.51782815032850
O           0.94140385841333    3.40949113220679    2.34167742616080
H           1.84018429591351    3.43340666777576    2.65542922464557
O           0.88494223649689   -2.15496964552409    0.02279765631803
H           1.68050569815242   -2.56619715833061    0.36299960011810
O          -0.83465033566878    0.08667743896183   -2.47293472827513
H          -0.68434744254657    0.41414032209285   -3.36002952904110
O          -2.20524306927684    0.73647819628098   -0.19397382148328
H          -1.90052861823016    0.51853339614324   -1.09107346537451
H          -1.61164284483138    1.47067017643497    0.07495233936472
O          -0.52856406742496   -2.59435161780207   -2.28039315715359
H          -0.71019033762661   -0.88565823779525   -2.50471133515792
H           0.05047119232709   -2.57227166588892   -1.49546541566525
H          -1.31564565420509   -3.08102957144154   -2.03121111551463
O           1.52377051399127    0.16448790818278   -0.87650926799710
H           1.84957995091495    0.85989220565393   -0.26463438469450
H           1.18042419372554   -1.25556362896789   -0.33130034671094
H           0.73943358537062    0.52112670673878   -1.31794330511997
N          -0.94361711845560   -0.78576999886545    1.51166079820536
H          -1.55729354077739   -0.25560969396646    0.80654863703952
H          -0.33682397500106   -1.46651521794215    1.01794212371872
H          -0.28702053018111   -0.04171069955752    1.94179886659326
H          -1.49851802714508   -1.22887168635371    2.23449350544241
