    26
        -50.45634930  Gyration_radius:  2.66552091811 Dipole_moment: 5.737
 S           0.18892447714514   -2.58716713008096    0.78066577691889
O          -1.24316879421127   -2.71254061326731    0.94857058941444
O           0.57724766102958   -2.54612144399992   -0.63481100739039
O           0.78745842669212   -1.50095220702011    1.52159264043648
O           0.81035705563163   -3.93557180110818    1.35933866138957
H           0.14598942579671   -4.57546114242988    1.12289683530116
O          -1.20098145621981    0.75378128271056   -1.84674533318275
H          -1.84445234724705    0.37319422615633   -2.44578487779018
O          -0.26682304461239    2.07940306129282    1.55424264801720
H          -0.70431725536844    2.45939287690226    2.31646293176527
O           2.02582911758607    0.73277000145353    0.90202701683337
H           1.33948892261149    1.34852595060233    1.21012139266485
H           1.75488479993450   -0.12456729399518    1.29609256547326
O          -0.99758674864060    3.26159735135011   -0.76679680682477
H          -0.58491766673894    2.57358407505226    0.76904094529903
H          -0.29683018236562    3.71079215951590   -1.24171081037281
H          -1.17890511408434    2.43223947676692   -1.24750915503293
O          -1.68383653122254   -0.15731722703858    0.50541567564247
H          -1.58141824434400   -1.11514788940717    0.69577515681008
H          -1.09951705201275    0.31630193983996    1.11499727137498
H          -1.43282626113182    0.38244792125389   -0.93562746678366
N           1.31194209008748   -0.21541079823165   -1.42377935505013
H           2.01677991784439   -0.23566773735587   -2.15145949766549
H           1.66966008474477    0.27201627139086   -0.53537866111653
H           0.43355779318645    0.23039894121297   -1.74826175541342
H           1.05346089591413   -1.22052023155794   -1.11937536072039
