    26
        -50.45634937  Gyration_radius:  2.66546718567 Dipole_moment: 5.732
 S           2.66724125539764   -0.14804255045837    0.44882157873941
O           2.47165663585916   -0.35872929049818   -0.99107470396153
O           2.75773403246656    1.25667236776826    0.78554827390031
O           1.70134030262479   -0.89090655952293    1.22478396137765
O           4.09788999983879   -0.76479355517148    0.78443740023088
H           4.67952514117102   -0.04291073325741    0.56695704995671
O          -1.88629511511901   -0.03630457085122    1.80512059727104
H          -2.18940114328559    0.28224136523467    2.65567799380268
O          -1.01481631669374    1.37924435526593   -1.57938458808053
H          -0.73415450988377    2.11198637089885   -2.12902995777751
O          -0.54387654247939   -2.15635855668016    0.71012062345213
H           0.34402369090649   -1.89266796661913    1.03534506121558
H          -1.14299903915022   -1.54670998080559    1.17324387941313
O          -3.36441185995051    0.91053107160063   -0.25322996427071
H          -3.83843790910349    0.24834391421530   -0.75843344795239
H          -2.48251502060002    0.34989764595513    1.12883184076690
H          -2.60685047629646    1.19392482634553   -0.79866520766044
O           0.15314242202341    1.61367711443166    0.69611307628709
H          -0.54564779079454    1.51532558343474   -0.69452871309585
H          -0.22170487756934    0.93519036759471    1.27611890260854
H           1.13001669600653    1.53946770568121    0.76161238867642
N           0.09264861965074   -1.11202360301568   -1.59715457092419
H          -0.42151278457882   -0.22505217954551   -1.75355560082399
H           0.05235178895356   -1.72003955495058   -2.40674737875922
H           1.11644780898113   -0.84055737866299   -1.37839552542880
H          -0.27139498837791   -1.60140619839055   -0.71253294896172
