    26
        -50.45634930  Gyration_radius:  2.66554104698 Dipole_moment: 5.735
 S           0.13528200694979    1.12323178938986   -2.46142666013644
O          -0.21380331427591    2.43410304153309   -1.95681136792188
O           1.50550389691305    0.73934513430869   -2.09925518468727
O          -0.80809586141936    0.08100055523996   -2.12840560817087
O           0.13040582526581    1.25707019378662   -4.04923377647978
H           0.44913467944094    2.14579305677537   -4.17335526994622
O          -2.16311051605015   -0.76351086585404    1.24658556922618
H          -3.06691448855041   -0.55423255563754    1.48342759224900
O           1.28508860554722    0.64087487344691    1.83291984319178
H           1.86155267600228    1.37755798589759    2.03965625311644
O          -0.74794872948973   -2.10719114615343   -0.67408399932496
H          -1.34543848320537   -1.80787037793985    0.03193464953694
H          -0.88360196609620   -1.44215346168497   -1.38335390531779
O          -0.49631992828431   -0.75135222902198    3.37753638955371
H           0.18946185726065   -0.19392460756317    2.96433532087308
H          -1.64094142250083   -0.74430590106720    2.07659452298327
H          -0.08400049673355   -1.59093944353755    3.58600242826868
O          -0.69470599275467    1.55133123222300    0.47382593437739
H          -1.32067177193123    0.82073940621109    0.36560161405906
H           0.51681309365777    1.04165302955309    1.31240228032337
H          -0.54728123437550    1.93737439052081   -0.41694447081453
N           1.61061927816761   -1.06142024116151   -0.27150266716499
H           0.68325309528537   -1.59642381992397   -0.36342745133425
H           1.62715560744233   -0.52220500670685    0.61430129730333
H           2.41034285428511   -1.67823951179301   -0.35341349371048
H           1.60822070945350   -0.33630551084995   -1.07390985006800
