    26
        -50.46126936  Gyration_radius:  2.53164229396 Dipole_moment: 6.043
 S           2.13460691850070    0.65965752588990   -0.50847614240661
O           1.37200717416885   -0.07117053231239   -1.51441673224576
O           1.72751412630183    2.04358208833744   -0.40975112859620
O           2.16629452260363   -0.03981145096139    0.76774702080405
O           3.64160960866265    0.66989624763999   -1.01660046163537
H           3.62217070653133    1.29543989753896   -1.73413168259325
O          -2.64185148554680   -1.24287964387888   -1.61315649099038
H          -3.53072048665111   -0.95071277389433   -1.81739620647506
O          -1.41192493325542    0.99220675908253    1.37404713060653
H          -2.06921404970538    1.53029325064092    1.81689771197979
O           0.99884085177050   -2.20310189011517   -0.03078170814271
H           1.03932347487757   -1.77188803802240   -0.90413396794508
H           1.55193439211321   -1.58098265065372    0.49307971969483
O           0.90490907581732    1.89350048331012    2.05945325557489
H           1.45510112612576    1.09332010935632    2.05375285483629
H           1.15925411481433    2.29596639212720    1.20299972586178
H          -0.51843390566794    1.34686052707256    1.67711383388371
O          -1.11220385613538    0.87169688298806   -1.47541262120026
H          -0.17761271030213    0.60693936630924   -1.59957232137786
H          -2.05562252720633   -0.44397596082408   -1.72588171017119
H          -1.18105141411145    1.15241907036609   -0.55243308465232
N          -1.42994396474878   -1.64030780226165    0.71319352008952
H          -1.80497160836585   -2.29042561189807    1.39464177964694
H          -2.00606064700380   -1.62803189592081   -0.16858643404447
H          -1.41532836516519   -0.66753060557526    1.08566652649298
H          -0.41862612842320   -1.92095976433026    0.43213760300262
