    26
        -50.45634919  Gyration_radius:  2.66549771729 Dipole_moment: 5.738
 S          -2.47661149230628    0.94702841825867    0.55400026736257
O          -3.05001610465843    0.33145505543948   -0.62372016606117
O          -2.16284035970651   -0.03958429479753    1.59524755155966
O          -1.34872929700413    1.81064530246089    0.29113210995884
O          -3.62676049926364    1.86617426084868    1.16348400615446
H          -4.40832699120415    1.35786096981336    0.96956669559748
O           0.55168483896732   -2.25133542998738   -0.21219571674092
H           0.06205122437967   -3.07163840094118   -0.28369401371263
O           1.71464823379732    1.01502340295551   -1.68524470168180
H           1.85597886132589    1.39587630071932   -2.55228429579022
O           1.20973882173113    1.78850415539175    0.89183934647275
H           1.54984114234899    1.63660665345015   -0.00615717914298
H           0.27248003286780    2.03801319577448    0.74021982226907
O          -0.71755577888590   -0.46120756376826   -1.54631973811319
H           0.02910225081637   -1.58043896938884   -0.75871378112584
H          -1.61379032966041   -0.17713951637470   -1.26302716656222
H          -0.15973563626809    0.33004099713405   -1.55492205713596
O           2.86693552159736   -1.41760854623678   -1.41258709198418
H           2.08017055614369   -1.85833594223701   -1.04033561612604
H           2.17202065158862    0.14747787853375   -1.67849492245962
H           3.55812429078702   -1.47758867869372   -0.75150173034052
N           0.35338271421048   -0.48307927274855    1.85344367927778
H          -0.70990855942904   -0.29102390287275    1.80694231552264
H           0.62987462652483   -0.71901630220436    2.79928329736290
H           0.54333191464627   -1.25754948146336    1.19027797321164
H           0.82490934666678    0.42083971092018    1.51376109225195
