    26
        -50.46126935  Gyration_radius:  2.53150967966 Dipole_moment: 6.041
 S           1.06917447553449   -0.63979773890539   -1.92269394018280
O           0.75613799517992    0.77239030877533   -1.73494333882874
O           2.21369681208639   -1.05650184594041   -1.14357558157826
O          -0.10264777495943   -1.48639889286549   -1.75131662224773
O           1.48213747480137   -0.80239196091040   -3.44988980535271
H           2.34887098994111   -0.40955298157476   -3.48124246074164
O          -0.73674034098311    2.84652278516028    1.57395491305903
H          -0.49599519206125    3.26548889346223    2.40082690706403
O           0.12224000752255   -0.96544315028109    1.97984491317677
H           0.33221930209589   -1.27518510617427    2.86169875718050
O          -1.83503146877189    0.41773951645970   -1.52022996907000
H          -1.06855581837302    0.99009592925195   -1.70791703182034
H          -1.43674837218924   -0.46455227543548   -1.69453829241374
O           1.28081406027023    1.37723575677169    0.79879861069857
H           1.21107668579605    1.21041749337221   -0.16365877426205
H           0.09757421812093    2.42765665072161    1.22304499223893
H           1.12530614203077    0.52132164342854    1.22147160431151
O           0.91315828217093   -2.77587939373873    0.32258409124793
H           1.67418339435441   -2.29290900204114   -0.06162091572829
H           0.41677492878579   -1.69901904537282    1.35451542431080
H           0.26808517284486   -2.70056770976012   -0.39951725209755
N          -1.94805270209021    0.53913252607289    1.07625753426045
H          -1.95471732138066    0.48046546124357   -0.00865798938937
H          -1.23731806026710   -0.12868538219513    1.44255347811549
H          -1.62682320337077    1.50868423317169    1.33368629459193
H          -2.86881969708801    0.33973327730380    1.45056445345528
