    26
        -50.46126933  Gyration_radius:  2.53164237469 Dipole_moment: 6.049
 S           1.00395050004080   -0.44491280122646   -2.01139383967644
O           0.59344214467764   -1.56567074636128   -1.17294487736803
O          -0.11271670210043    0.16298931489167   -2.69992032965104
O           1.83854589582849    0.50244493705954   -1.28683241323096
O           1.94673674597017   -1.05651418264566   -3.13676756049701
H           1.33376778992320   -1.51110126823870   -3.70612405373467
O          -1.65140459093143   -1.69156911542384    2.35242131650554
H          -2.54146704334839   -1.70019575664890    2.70595646846856
O          -1.22966514817450    1.75704857122951    0.51850496054417
H          -1.90831646114971    2.41692957096305    0.66601512149137
O           2.07194850597057   -0.88106565468046    0.88405468906334
H           2.25196186205986   -0.22862991057195    0.17049087878448
H           1.57574695990295   -1.55173225810558    0.37978466051158
O          -1.78910872722007   -0.97328729859517   -0.15657180085078
H          -1.73528315606550   -0.00800090237047   -0.12869289007584
H          -0.98048205459534   -1.26729488985952   -0.62425445785634
H          -1.74687390814668   -1.57437512507851    1.36656881051159
O           0.11747467078209    2.49327307174886   -1.55353724365903
H          -0.70281879857510    2.07955661214500   -0.27786929169161
H           1.00848779998978    2.15982013324862   -1.35845355526435
H          -0.20031101444655    1.80961474756923   -2.17932348207267
N           0.17353110487206    0.23247745455764    2.27186788415226
H           0.50165331026360    0.67894468780862    3.12080700770781
H           1.00093879587263   -0.22002180967589    1.73248736602036
H          -0.51876861727960   -0.53367482463278    2.47978586446908
H          -0.30096986409684    0.91494744288409    1.64394075739757
