    26
        -50.46126929  Gyration_radius:  2.5315595764 Dipole_moment: 6.047
 S          -0.83900164710838    1.99388015690550    0.75557814449940
O          -0.96156091004421    0.81666685620351    1.60816815628825
O           0.49699595940261    2.54652278400583    0.77235459207908
O          -1.36440117032168    1.75739173866086   -0.58124517311625
O          -1.79082776995600    3.09949823994324    1.38876378461166
H          -1.31594531792752    3.37048193184401    2.16824765235654
O           0.63577908451622   -3.02938281697721    1.24112143692564
H           1.41331123658518   -3.56534524466143    1.40041575768096
O           1.70029979996104   -0.29769056732875   -1.37443489278271
H           2.54536400726033   -0.41490988050301   -1.81019033682187
O          -2.34246795415475   -0.59095094995675   -0.12303417920990
H          -2.18848068146655    0.29194880560223   -0.52809232157533
H          -2.05877448285974   -0.40977439466733    0.79186698765520
O           0.97155224106082    2.14577136901525   -1.75987143580435
H           0.00336530615454    2.07714237810850   -1.79257234821416
H           1.10016298857351    2.47763504311759   -0.84698823929991
H           1.42591885591539    0.65403946195164   -1.56068646437899
O           1.33036129972000   -0.51954817131162    1.46061145119210
H           0.88807677777650   -2.09651486972066    1.48779422268019
H           1.62078996571334   -0.27658229934760    0.57064622604206
H           0.53461004740480    0.02427647924140    1.63414571022101
N          -0.35944194375985   -2.02630470112773   -1.00449485561752
H           0.40075072076594   -1.36440353790399   -1.26759603794423
H          -1.22025074379317   -1.45334049474972   -0.67113826204374
H          -0.60948716076811   -2.62804641052255   -1.78110189388024
H          -0.01669850864451   -2.58246091580314   -0.17826768154052
