    26
        -50.46126934  Gyration_radius:  2.53159561656 Dipole_moment: 6.043
 S          -0.74127030237628   -0.09825399505072    2.16569427101719
O          -1.18452190060705   -1.45732733396841    1.94862974204802
O           0.68835104506300    0.06274249567988    1.92506799809162
O          -1.53011802456809    0.90075296997940    1.45955917093246
O          -0.96696752091440    0.20695083587726    3.71012345742682
H          -0.60745966849628   -0.56457770134732    4.13678208070231
O           2.92002546331562   -0.10587496120881   -1.60925845473307
H           3.35010464484402   -0.69695654947285   -2.22798295364458
O          -0.91277175800261   -0.95417895103374   -1.76713209003714
H          -1.20539858751278   -1.52245857963384   -2.48063245024306
O           0.45451846071975    2.30381601393097    0.58053034609873
H           0.98622017293026    1.68207195308795    1.11076686680710
H          -0.44930744133450    2.04685431141358    0.87100125488158
O           1.34245729219044   -1.53640162708222   -0.09415326812509
H           0.50652301254817   -1.55997546304037   -0.58007008574075
H           2.45564274759584   -0.68923325615033   -0.94698452943224
H           1.15134537874106   -1.04701816338450    0.73222320304587
O          -2.80322134472075   -0.88955852762563   -0.01439169241529
H          -2.72254035587189    0.00550693900039    0.35349971648205
H          -1.67625169272373   -0.92492707296536   -1.10970310969459
H          -2.36383197283264   -1.41522068779714    0.68619869997130
N           0.65435577002234    1.26204747900997   -1.79510625500930
H           1.61591254884028    0.83455974103560   -1.84252520022548
H          -0.03312661430660    0.48083555432035   -1.84248658078739
H           0.56556692451158    1.74607392300235   -0.82637310230583
H           0.50576369296153    1.92975065343085   -2.54327701512214
