    26
        -50.44529060  Gyration_radius:  2.48661890679 Dipole_moment: 3.291
 S           1.66584586961979    0.53086100751640    1.48122986238732
O           2.62525415809765   -0.25842870724194    0.68852653998206
O           0.63284030752456    1.05159031914853    0.59943552916601
O           1.16814103609881   -0.14517840111955    2.64082223558159
O           2.48656454987808    1.79063378250092    1.99543644917846
H           2.78028893848126    2.20563062528065    1.18963300840759
O          -0.58816474506907   -2.01933659300608   -0.76912134024992
H          -0.48797374465900   -2.97193134536573   -0.78631418659303
O           0.44555340149207    1.26576510897708   -2.52256705099405
H           0.42369517139429    1.20435273449050   -3.47952978664977
O          -1.95098765888276    1.38975439791148    0.78567451331948
H          -0.96924799425181    1.28153728779108    0.77768965536968
H          -2.11140358927419    2.33115564459974    0.86406733006927
O          -1.85874890353306    0.33362051342071   -1.71199700184858
H          -0.47488497556197    1.03767529080178   -2.20594115196217
H          -1.60526478944686   -0.57714080546881   -1.50971061815956
H          -2.03348760535692    0.74442992156490   -0.84110585676391
O           1.54130258022867   -0.76635340527702   -1.44650134302512
H           2.05922997895552   -0.53641991108498   -0.52123949855554
H           0.70465207605425   -1.28776760311521   -1.17167486917718
H           1.18826340312422    0.12008054292902   -1.83696267285257
N          -1.15973422909493   -1.35547352760752    1.64200481989351
H          -0.81695894339817   -1.76206409000999    0.21467442778566
H          -1.54682925254619   -2.04377761950792    2.27538540041171
H          -0.30531571415410   -0.98268431521736    2.06476347922573
H          -1.81262934569214   -0.58053084290971    1.58332210606158
