    26
        -50.46846775  Gyration_radius:  2.39949911886 Dipole_moment: 5.641
 S          -0.49198077605291    1.65549543728756   -0.57469705092043
O           0.76322824522207    1.10465587280792   -0.07636579396951
O          -1.59170470917680    0.70721663661037   -0.27254859493020
O          -0.75892826161410    2.96900717753402   -0.05425729489879
O          -0.39106910241256    1.72894394292111   -2.12820542637126
H          -0.06743446766305    0.84326085755289   -2.42113057323838
O           0.30325179663195   -0.74003432602937   -2.84479371124850
H          -0.03244020072714   -0.88278479131838   -3.73152099876665
O           0.56110151020985   -2.14567221295318    1.14348243094368
H           1.05009922423998   -2.82956658448295    1.60251609240056
O           0.37772752513676    2.42177786252137    2.27474507296209
H          -0.10674780104843    2.79491552347028    1.50174804502447
H           1.27534955294649    2.31265956189072    1.94636367995972
O          -1.26420423858602   -1.79717747019917   -1.04407982764424
H          -0.74519619294446   -2.13074267302055   -0.29931328983985
H          -1.54733603456036   -0.89395007575148   -0.78195476217057
H          -0.30399670845099   -1.23872210036166   -2.22881020965647
O           2.09346055374543   -1.05782948535048   -0.65167938113944
H           1.74033718527130   -0.16393058945778   -0.43899113162449
H           1.19353283337006   -1.76498736026870    0.46282051761408
H           1.80840607912416   -1.20557915926574   -1.56099066720609
N          -0.77544447044685    0.04378747272340    2.07220991799732
H          -1.45442649556026   -0.16948979071994    2.79547689622240
H          -1.25160492254360    0.28399397701634    1.13877972091748
H          -0.22694269113195    0.92649430804380    2.29573341189777
H          -0.15703742298449   -0.77174202119792    1.87546291768446
