    26
        -50.44529051  Gyration_radius:  2.48725033101 Dipole_moment: 3.290
 S           1.67140696581508   -1.49365995086394   -0.48481434732353
O           2.55293399364723   -0.38039504323426   -0.87898101655059
O           0.73785261170083   -1.02739673486583    0.52846235035369
O           1.05856725426889   -2.17350847073179   -1.58558806746792
O           2.62209799474946   -2.54286510983238    0.23656648317732
H           2.99052315997311   -2.04485418577020    0.96046831315282
O           0.67071465413542    1.56622358683201    2.29381144875615
H           0.67250791149359    2.42455319207889    2.72196162516384
O          -0.80175660612884    1.65580952504184   -1.27774222421920
H          -0.81585251742268    2.14969007869130   -2.09838338443150
O          -1.79235010552924   -1.43725022317903    1.03366390365098
H          -1.84186760806550   -1.97870086943530    1.82258397367183
H          -0.83071021002038   -1.34551149933423    0.82763799700950
O          -1.75221505734751    1.25518538270693    1.36241768925825
H          -1.61544382938470    1.54357751134637    0.44983173838984
H          -1.90262267639966    0.29009273748235    1.30046716249224
H          -0.28000861839368    1.37674794095089    2.04936392882396
O           1.48218714766532    1.68489948756907   -0.11772253668012
H           0.58121853146628    1.68041303460777   -0.60308949289802
H           1.24973897160032    1.56867680768555    0.87993912434596
H           1.99493997337248    0.78640700180510   -0.44472985576777
N          -1.36551493255352   -0.78172426940945   -1.84340166295784
H          -1.02969305344744    0.66803591062075   -1.52095739254776
H          -0.48606066744812   -1.30549980550535   -1.83813330905656
H          -1.91727386424098   -1.13969356590368   -1.07028002585242
H          -1.85331939350268   -0.99925247935183   -2.70335241247570
