    26
        -50.44529057  Gyration_radius:  2.48678205999 Dipole_moment: 3.290
 S           1.55339175431498    1.55007069290967    0.66189934495595
O           2.63673906400740    0.60436618123945    0.33984530035838
O           0.41616029521534    1.28620709777320   -0.20575708329629
O           1.23120947578511    1.61920697677900    2.05504431844223
O           2.10875375041813    2.97886106779017    0.24344261468989
H           2.29416440744924    2.88029414840029   -0.68593906209897
O          -0.17530900126348   -2.14618755424450    0.61634359119221
H           0.12008945327047   -2.89602929117583    1.13409891489112
O           0.11701220384138   -0.41199039503896   -2.82491934158153
H           0.08758066726173   -1.02742237123601   -3.56005737527208
O          -2.17708606573813    1.26447878295111    0.10980216789358
H          -1.19455101503511    1.32563476952447    0.02891756478879
H          -2.52670611813579    2.03244296444954   -0.34407948911379
O          -1.92585645147706   -1.03054115734364   -1.31505876654119
H          -0.72911905134676   -0.54909379002588   -2.31040355343901
H          -1.48509666777888   -1.59505119494145   -0.66567772777610
H          -2.16166380559983   -0.21849732617352   -0.82233694961018
O           1.63295286498691   -1.22152858163494   -0.94486279213954
H           0.92851946873160   -1.60289014334878   -0.30773853307099
H           1.09550478020199   -0.80229731036534   -1.71838916907416
H           2.11282394826916   -0.41512810557165   -0.40066400059658
N          -0.81850110282746   -0.28757450140956    2.26308424272808
H          -0.43115700092469   -1.39796164690925    1.29564347230978
H          -1.61795415632618    0.19249014921214    1.86223006054884
H          -1.04186441135434   -0.52042034055841    3.22259626893832
H          -0.05003731595798    0.38856085895397    2.27293595187809
