    26
        -50.45450907  Gyration_radius:  2.45141545966 Dipole_moment: 5.290
 S          -0.18510655393006    2.07367684612115    0.14959611647458
O           0.84276241733695    1.04908084463664    0.18148410901590
O          -1.56949830898478    1.40691586812359    0.21387911523745
O          -0.11448526269131    3.04668779630279    1.17877639016639
O          -0.14274596873776    2.73233302281915   -1.24646654279003
H           0.44114953374589    2.17493898745450   -1.84634146516594
O          -0.73323453284284   -1.98727544434239    1.53106922567587
H          -1.28060472326769   -2.55454558118140    2.07548004145530
O           0.50300770570209   -1.37413572284829   -2.35012487069691
H           0.71625084870336   -2.09725957828118   -2.94096952017844
O           1.46170823612880    1.16549941616549   -2.51255899076548
H           2.03880166800982    1.07601890923327   -1.74685845094986
H           1.03848995466372    0.28972991571373   -2.61891177068366
O          -1.68370830660674   -0.91266319208713   -0.77647108037436
H          -1.63075657833973    0.49253736397976   -0.25312119727194
H          -1.00026044808968   -1.05357172097701   -1.45692266256213
H          -1.39416024317382   -1.41266993842277    0.01503076525047
O           1.55622576228846   -1.54939671424191    0.02570209398242
H           0.89528501308944   -1.95530952697803    0.60655677039802
H           0.99066977020503   -1.53879584929748   -1.49263208610101
H           1.46114009749928   -0.59372590093897    0.18362253686307
N          -0.43652306314905    0.38351708922726    2.71603972126062
H          -0.62803158643197   -1.12492989961531    2.02833942441292
H          -1.27418479852560    0.93311199267981    2.56091855144791
H          -0.13812692951071    0.54378454737403    3.67111331951621
H           0.26593629691433    0.78644644933387    2.10377045637709
