    26
        -50.46846778  Gyration_radius:  2.39954067209 Dipole_moment: 5.640
 S          -0.55731342334373    0.66107016446142   -1.60183283002854
O           0.68638895062712    0.04307796496064   -1.15638572620990
O          -1.36643499611848    1.03265469884512   -0.41551087594072
O          -0.33081390603501    1.78526048520794   -2.46921783496773
O          -1.37467462818227   -0.42264564941016   -2.36758524192829
H          -1.37807990431597   -1.22058573542154   -1.78591341129522
O           0.89351273628778   -0.54131068864363    2.26648602164219
H           1.48467919930653   -0.82107016072739    2.96638654759557
O          -1.49289206545891   -2.46292168643711   -0.66054378744450
H          -2.29513020979847   -2.95033035795115   -0.85583152448043
O           1.88616002672826    2.48648053217928   -1.20046703621997
H           2.40561731575304    1.71029291802616   -1.43113433639481
H           1.08431703175071    2.40403666066991   -1.76759650230902
O          -1.81669907742597   -0.85754469470680    1.37295098469504
H          -0.99959966971508   -0.79432575202017    1.88635110285612
H          -1.79658765108325   -0.09483711818890    0.75439322253721
H          -1.67526993277447   -1.93885034195659    0.16949970607822
O           1.19454914021718   -2.10972802548590    0.21619375303416
H           0.41918998507513   -2.64271388347718    0.00485240485020
H           1.12820655077131   -1.34646619216761   -0.40191513183572
H           1.04550278701473   -1.17966492277135    1.50648340801827
N           0.58858834553003    1.86955609921306    1.02707389358120
H          -0.31402504081012    1.60931166931117    0.50417343888897
H           1.25378258558026    2.13289985820125    0.24092949115762
H           0.44100417604489    2.64197881474582    1.66833104659119
H           0.88602166437645    1.00637535354935    1.52982923752291
