    26
        -50.44529014  Gyration_radius:  2.48700317998 Dipole_moment: 3.273
 S           1.72002948239932    0.59089276738050    1.39413695707890
O           1.00326005247845    0.91064139080347    0.16960248841784
O           0.78468692907713    0.65134349603351    2.53144127971631
O           2.48915208214498   -0.61500110638500    1.33079912893194
O           2.74446592761089    1.78168038487525    1.63453342563403
H           2.18299942265129    2.55022401576288    1.67738777761407
O          -1.51315691026769   -1.62726368096583    0.26902646039338
H          -1.87334851743904   -2.36442301377317    0.76349129456921
O          -1.82222008389585    2.17502472345840   -0.34196933558465
H          -2.73138916504953    2.47253028145313   -0.41224652786903
O           1.05913875504386    0.02687410359282   -2.28813753094605
H           1.46522974741008    0.70713896803963   -2.82704794200508
H           1.10345335256211    0.35582026504269   -1.35784059064258
O          -1.63187151291075    0.12649594543257   -1.95487297743287
H          -1.69953733074362    1.47831960629283   -1.04848208849897
H          -0.69108745841591    0.06645475345506   -2.21770265044086
H          -1.75816735867026   -0.59262951794202   -1.32111678616757
O          -1.47695675875944    0.56232966904764    1.59861476489622
H          -1.49273669841502   -0.32544967641970    1.08966670089415
H          -0.48929578551140    0.62870854160632    2.04165213949923
H          -1.54335507500246    1.28954160218798    0.87047933701934
N           0.90656047250255   -2.22432714371569   -0.33753224763355
H           1.20116580903374   -3.19279187659660   -0.34306026431738
H           1.51406663156444   -1.71315436592911    0.30862920272160
H           1.07925674807951   -1.83824601534390   -1.26021536542240
H          -0.53034276749373   -1.88073410739106    0.03076335957715
