    26
        -50.44529016  Gyration_radius:  2.48702383047 Dipole_moment: 3.272
 S           2.18725325928684    0.41492979710368    0.54342772462879
O           2.62330950525671   -0.65723908583728   -0.36890822345868
O           0.94392740315475    0.98538174786662    0.04922738449107
O           2.15540718565393    0.03409581534120    1.92315829449204
O           3.28661212667766    1.55368142936341    0.40259183043759
H           3.27079651623169    1.76167386889516   -0.52705847845311
O          -1.08592666269992   -1.95691972383603    0.00213788229596
H          -1.11224844741630   -2.90102588313703    0.16223087248195
O          -0.53129421206121    0.73926960782117   -2.70936003270168
H          -0.96511211232887    0.53376025680652   -3.53976069548837
O          -1.25777849930358    1.85569136507902    1.15376853578799
H          -1.25935005088869    2.81047486780792    1.07401035755326
H          -0.39229811906956    1.55443021974871    0.78523006695648
O          -2.36001805646740    0.42110551412957   -0.86848451470030
H          -2.14953130356034   -0.47813902861203   -0.58251221817249
H          -2.09891216642838    0.99074037046865   -0.11678079584171
H          -1.24871759764589    0.75043628068660   -2.01314182615163
O           0.67944460593293   -1.27293544682726   -1.72366867710140
H          -0.01308232400902   -1.56815226105060   -1.03031837656464
H           0.29663612269820   -0.40728868807106   -2.13294047132019
H           1.56540231949019   -1.00650797586526   -1.15780245730962
N          -0.50032463371990   -0.82203624244138    2.22654439011189
H          -0.84497626946055   -1.50769129471089    0.91158220455770
H           0.48992047340654   -0.56642880062851    2.18250476116131
H          -1.02077096142537    0.04891709378659    2.25516779330651
H          -0.65836808130661   -1.31022382389276    3.09915465900068
