    26
        -50.44529006  Gyration_radius:  2.48706995178 Dipole_moment: 3.272
 S           1.41649442359136    1.78546501353007    0.23950799334137
O           2.57704845502235    0.89680683250151    0.05137729226782
O           0.27903201178946    1.24495221117906   -0.48808752212231
O           1.14271852043986    2.11114394536827    1.60649912848288
O           1.80865318336254    3.14150976193618   -0.49026728258956
H           1.98878869235806    2.86646443316132   -1.38450307856557
O           0.05777393935795   -1.97381759635848    1.05407705152474
H           0.44204646706112   -2.57003063913020    1.69791089792705
O           0.05628086358787   -0.98774343156055   -2.68133688288170
H           0.06070944054973   -1.74451709426556   -3.27066685139923
O          -2.28686191789540    1.06150451441094   -0.03283462703020
H          -1.31847293871768    1.19076839219341   -0.17823209451576
H          -2.72530884813998    1.68306057093900   -0.61553038725529
O          -1.86124426526207   -1.45059491011667   -0.96577305458621
H          -2.15840489753540   -0.57723755687404   -0.63906947148597
H          -0.75355831274972   -1.08680022139049   -2.10346042997207
H          -1.34378778799442   -1.82364446817459   -0.23927316849376
O           1.71058695884143   -1.24344098085693   -0.76203175758483
H           2.12845590839330   -0.30047311085404   -0.42673431672915
H           1.07027249895087   -1.54130919812617   -0.02128706834980
H           1.10698952348211   -1.04739876791726   -1.57484745270753
N          -0.70736058130599    0.12363330640645    2.31693133225891
H          -0.00809800721590    0.85104330667828    2.14426649553280
H          -0.24671198781776   -1.12578462901474    1.57849699533825
H          -0.87264909505677    0.07998656483691    3.31469205431530
H          -1.56339226706351    0.43645375151365    1.87017623525386
