    26
        -50.44529046  Gyration_radius:  2.48609325762 Dipole_moment: 3.294
 S           0.47930958310472    0.20383200369335    2.22972540055608
O           0.40589941059222    0.88655427675178    0.94750794773613
O          -0.85098905042967   -0.33227784120125    2.56863350841393
O           1.53979477045221   -0.75251795228809    2.33022872172490
O           0.76438429830286    1.32800748817874    3.31617590901869
H           0.03636938633174    1.93249246923437    3.20473529354362
O          -2.02153380734501    1.86370814616238   -0.77328269402783
H          -2.81286543956261    2.04122055308208   -1.28545288278631
O          -0.78915311617845   -1.78383280346391   -1.09870057877072
H          -1.07189130976571   -2.69883199907576   -1.12173028221408
O           1.97726926726000    1.08657876570794   -1.12994960844272
H           2.33904794663761    1.97379447827876   -1.13063582499244
H           1.43713684480302    1.01456999931108   -0.30616520554399
O          -2.16628628430117   -0.33491396406129    0.50425959319836
H          -1.61898630281548   -0.32325585847035    1.44098773827161
H          -2.10307528932411    0.60857182339058    0.09303960788113
H          -1.62485960778810   -0.93471530196240   -0.12355933622883
O          -0.37297889603560    0.68652928308930   -2.42594746347811
H           0.52986210171199    0.86307562120772   -2.09220158912501
H          -0.54488261475134   -0.23709317497388   -2.19767213840755
H          -1.33549423777058    1.53478657841544   -1.42198100031810
N           1.64552539318510   -1.75798150756712   -0.28945850723827
H           0.19841226469883   -1.78611371343145   -0.76627279742472
H           2.11343034833139   -1.01617989013158   -0.80035871339001
H           1.63609437805079   -1.47138783071968    0.69311817785411
H           2.21045997261416   -2.59461965915318   -0.36504331580861
