    26
        -50.44529040  Gyration_radius:  2.48604274299 Dipole_moment: 3.294
 S          -1.46417732482790   -1.72218129277444    0.36461466202783
O          -0.81256022838724   -0.88718891322046   -0.63225282535608
O          -0.43669104971609   -2.43681279974557    1.14266728867467
O          -2.43558456861038   -1.03906113798631    1.16410042409410
O          -2.23860632960980   -2.85286892296302   -0.43992204483099
H          -1.55083803228594   -3.27252210993798   -0.94851836934132
O           1.23492012941828    1.11892472700622    1.49478332817188
H           1.50890976687103    1.29310985903629    2.39603769723514
O           2.12204497116454   -0.82558379078093   -1.72436544749361
H           3.05812637707228   -0.80329020499975   -1.93246202252443
O          -1.23981137858542    1.49844238128686   -1.60760590483140
H          -1.14391988837685    0.58717555388356   -1.23892133784108
H          -1.57276660387783    1.38784273790394   -2.49920386286727
O           1.44896053382061    1.66108778824542   -1.27957360358628
H           1.82147342964349    0.12705361145304   -1.68154687269556
H           0.49210893886535    1.72955028527032   -1.47299813221906
H           1.50800239861407    1.67622327755618   -0.31467519281266
O           1.68754975090049   -1.28796469394693    0.74220054365655
H           0.76772750460712   -1.83436800098986    0.92030620836345
H           1.80926466502711   -1.20418589461762   -0.27837296096976
H           1.50878372531562   -0.33429576457846    1.06743602435471
N          -1.29656884588155    1.51856709395792    1.37617852025582
H           0.20608339504060    1.28151681353938    1.46001789778530
H          -1.74940419232214    0.60060379684454    1.37867237899882
H          -1.74957822829459    2.09187517355536    2.07683383298571
H          -1.48344892557474    1.92835041703972    0.46656978072993
