    26
        -50.44529029  Gyration_radius:  2.48699296755 Dipole_moment: 3.276
 S          -0.17086782398936    1.58225887720142    1.64897634500336
O           0.52088357177517    1.18611533728991    0.43241148256177
O          -1.60782426603383    1.73574878702234    1.35974136012749
O           0.11388979461496    0.75935249871872    2.78535809374741
O           0.34222853544167    3.04555561145451    1.99640276478410
H           0.12378158120280    3.54686089123618    1.21618510564042
O          -0.36064017993391    1.17801040209028   -2.57886991777967
H          -0.73958444799804    1.11364907960834   -3.45767890528862
O          -1.26163009699519   -1.82146361034812   -0.31699887814145
H          -1.97251069467559   -2.40630567665720   -0.05197596202941
O           2.47732919577248   -0.45119193134317   -0.13011558432520
H           3.24179860161955    0.08247745918582   -0.35124307291771
H           1.77055474328633    0.18520993525593    0.13651656243685
O           0.79086559576390   -1.12857069112059   -2.14504033412403
H           1.49918571700683   -0.96641579753338   -1.48951427998506
H           0.08938728411614   -1.57014286017769   -1.64734227271604
H           0.19374379501599    0.35584212471290   -2.45138216828691
O          -2.03587904971278    0.58090146875530   -0.75588864249342
H          -1.35610449556297    0.93237681501030   -1.44709877914983
H          -1.74792363298493   -0.38271423876019   -0.56639465615500
H          -1.87471838496230    1.12226488338609    0.17003179011173
N           0.43756674193049   -1.76589256321747    1.60365463388983
H          -0.57989959124822   -1.80551300962013    0.47165318863962
H           1.35667481769001   -1.70370307103555    1.17750575402227
H           0.29270787454949   -0.88763097611745    2.10915555355723
H           0.45698482431064   -2.51707974499352    2.28195080887278
