    26
        -50.46846774  Gyration_radius:  2.39960293155 Dipole_moment: 5.640
 S           1.51303768301661    0.82647590095589   -0.58374515064654
O           1.37478945563710   -0.61235738155695   -0.91657990096215
O           0.48964537595578    1.19145787487481    0.38921295329638
O           2.83950397805153    1.14633941935764   -0.13037074269660
O           1.21578734622274    1.61070375266751   -1.89740621840627
H           0.25661743448822    1.47070236796162   -2.08567179455713
O          -1.84254453903588   -1.29752970685610    1.07237287878282
H          -2.57599833945901   -1.53251836067829    1.64195355404992
O          -1.32781818090555    1.03054958933149   -2.43073601012531
H          -1.44075288255989    1.09651284684399   -3.38055064863420
O           2.24050910253872    0.63815492490412    2.39917816324171
H           2.65455915565312    0.83790525780790    1.52741796811952
H           1.60884129185372    1.35399241287318    2.51757945997183
O          -2.11219802195479    1.17077649816657    0.30484421792701
H          -1.99848800783979   -0.34311166786386    0.80238758669624
H          -1.14620332384546    1.32898765811813    0.40915941543249
H          -2.26058213192914    1.27982504790765   -0.64172519889279
O          -1.01377782762942   -1.44804303132937   -1.67195841951917
H          -1.29556653964076    0.05588084110816   -2.21678192337679
H          -0.06766468685384   -1.25656185685075   -1.49044327693153
H          -1.41874523891208   -1.58946856208939   -0.80520462719830
N           0.85435524887147   -1.41978228994883    1.46685578418975
H           1.12222484913904   -1.21863394852782    0.44527945985341
H          -0.18489438140477   -1.35336649714121    1.50767100497729
H           1.18137529911032   -2.33204345348347    1.76763728148835
H           1.33398788143460   -0.63484761655302    1.99962421392241
