    26
        -50.44528989  Gyration_radius:  2.48703021086 Dipole_moment: 3.273
 S           1.54803966609250    1.24951915045622    1.13720131687432
O           2.48299778203792    0.11031866183256    1.12695843278370
O           0.69392165323321    1.17605634441137   -0.03774604341021
O           0.84180344515838    1.41761582280340    2.37115361221905
O           2.45973435873562    2.53690188514943    0.94587657113923
H           2.91199658941628    2.36649225782969    0.12480268956419
O          -0.75776878456829   -2.05117995322010    0.47913555135726
H          -0.78186919828724   -2.82645020508250    1.04130455700853
O           0.88011198733691   -0.52401649023663   -2.66810996703153
H           0.95528899722758   -1.14766458068006   -3.39300871349656
O          -1.82792463653641    1.65781136942037   -0.51923208098558
H          -1.87105176022288    2.46246666629393   -1.03767991773803
H          -0.87388701480271    1.52870298938282   -0.29823433006323
O          -1.60065330596288   -0.68991716292086   -1.86056475738992
H          -0.09139759929365   -0.47954426354942   -2.43596408441218
H          -1.49120985458254   -1.30515781575548   -1.12286006761044
H          -1.81460973562945    0.16824397501532   -1.44156732052528
O           1.57844605001422   -1.53938614410438   -0.43942495381006
H           0.65592082089448   -1.75755971429575   -0.05352536756547
H           1.38810120082792   -1.05388839589792   -1.32914820850887
H           2.01830200537300   -0.81912311565267    0.24155968211817
N          -1.50319673875506   -0.05177198771562    1.90278773753290
H          -1.05993127627041   -1.24642803724382    1.06897731115243
H          -2.04457762724780   -0.20546477970806    2.74423348157356
H          -0.65859160677547    0.46582844797646    2.16091741101868
H          -2.03799541741429    0.55759506549529    1.29215745817644
