    26
        -50.44300236  Gyration_radius:  2.54149912495 Dipole_moment: 2.808
 S          -0.62481083164392   -0.59616838636279    2.20176708213294
O           0.82410270555794   -0.76342213244182    1.96916778877483
O          -1.07929344936320    0.66040895511140    1.63467817499667
O          -1.38333731406468   -1.74587166543855    1.80042129728119
O          -0.77000794262870   -0.45062192641786    3.77276536874490
H          -0.38134643956526    0.40220713972982    3.94215320722202
O           2.80243697758627    0.83267294547713   -0.39624983024734
H           3.41439647082098    0.89848294885482    0.33866574780579
O          -0.32427629698465   -1.07795731480636   -1.95191759569293
H          -0.49305300916756   -1.85643334202787   -2.48442998643898
O           0.01694415334468    1.64820329728844   -2.40121900117200
H          -0.12491930911117    0.68882295344222   -2.35883375660250
H           0.88540793900360    1.77900789459260   -2.78706994231487
O           0.64952575410323    2.10482737753664    0.22453669761199
H           0.23307524945563    2.13956346158348   -0.65660094707980
H           0.02878823465076    1.60244957969849    0.79368702690531
H           2.00025894408343    1.39033295476119   -0.13580833785361
O           1.59256944757615   -1.37411102391084   -0.26954966231435
H           2.17546657022178   -0.52191129345185   -0.40633417586595
H           1.21437819959505   -1.20290184269638    0.73654368607901
H           0.81497237831622   -1.29292592618317   -0.92374442887472
N          -2.39254579636913   -0.64141905934889   -0.51939774423470
H          -2.35957198311322    0.32456118356762   -0.21238609885906
H          -1.19369600812830   -0.90515342209372   -1.39639108241985
H          -2.19286531463291   -1.19510892947374    0.31832123818775
H          -3.33259934954199   -0.84753442699378   -0.83277472577884
