    26
        -50.46163244  Gyration_radius:  2.52132316546 Dipole_moment: 9.768
 S           0.26402001910380    0.73252896504480    0.73339554085970
O           1.13240969755565    0.63154982032648   -0.56026032964548
O          -0.07261960168378   -0.65155134370841    1.10011610418392
O           1.17890556814833    1.31517221584872    1.72150107020433
O          -0.90219066902467    1.52682746274448    0.46667891798925
O          -1.76727584913482   -1.67809264348162   -0.61034818112809
H          -1.71295963076284   -2.63233672088543   -0.54263121959939
H          -1.17912005392509   -1.31163928858782    0.09237663949767
O           1.97545251092949   -2.13000366806917    1.66925724568786
H           1.85981567659727   -2.40361598993952    2.58104674229225
H           1.14259169963603   -1.64005643562666    1.43008716820169
O          -3.43994351742443    0.57159910204226   -0.21400370544192
H          -3.16342500450563   -0.33337564855685   -0.40513836195681
H          -2.70217807975363    0.95676866700096    0.28251267824343
O          -2.04699654128688    2.10107360413527   -2.00304584821050
H          -1.55129604564195    2.35113358032611   -1.21084939193693
H          -2.83722483243788    1.65916861239146   -1.64025913680672
O          -0.49863933916196   -0.00277481544873   -2.35402573991611
H          -1.03809653230086   -0.68613791321040   -1.91473798981258
H          -1.07975752482356    0.80291595407631   -2.40291937599872
H           0.49579773592182    0.37843221093882   -1.34205994236599
N           3.24441239406338    0.08469748500149    1.02345312955334
H           3.18723640090511    0.18204233704902    0.01020332270042
H           2.96215129241113   -0.89645694887092    1.29586524879838
H           4.15333637180013    0.35526679576070    1.38351210868224
H           2.39559385479421    0.71686461369644    1.41027330592362
