    26
        -50.44300230  Gyration_radius:  2.54143440867 Dipole_moment: 2.814
 S          -2.04139065553282   -0.23358231878368    1.16952333634936
O          -0.87500363102255   -0.58447758979469    2.00496526324367
O          -1.76978452794930    0.97783002402189    0.41738432026636
O          -2.50692025217635   -1.33835876608693    0.38138239355804
O          -3.18514564587988    0.13337358603253    2.20265425330294
H          -2.87385228163897    0.95048754958139    2.58008805474046
O           0.91369003346920   -1.27820160102442   -1.61562708013200
H           1.02839620472644   -2.09478493520064   -2.10360122672541
O           2.40914307617149    0.46937219240429    1.63573607027710
H           2.35603747726316    0.56169210711961    2.58841604039363
O           1.92257647663918    1.31221383024566   -1.75065871431335
H           2.82583939613141    1.29381484332956   -1.42830959582699
H           1.62864226651321    0.38839861188871   -1.80174843083481
O           1.09204696548750   -1.55956724281454    0.93031351506535
H           1.74340160629523   -0.79970805875135    1.21871291844950
H           0.16687311847475   -1.21985376855839    1.39228219957866
H           0.99446705506729   -1.48028354283139   -0.08125778613448
O           0.66294555484175    2.03653230537763    0.57113400168381
H           1.75238600789027    1.13942168586952    1.25864521874704
H           0.97182223585245    2.00185797976394   -0.35326786897588
H          -0.25077319417651    1.68056185546293    0.56059431195755
N          -1.46783502928492   -0.44901653701410   -2.01683391284874
H          -1.98545554331770   -0.90766280874222   -1.26195012892271
H          -0.05739015292783   -0.94597229183674   -1.81791237478059
H          -1.96141744028312   -0.59368533454419   -2.88853339686718
H          -1.49329911064201    0.53959822489711   -1.79213139124398
