    26
        -50.44300235  Gyration_radius:  2.5414807235 Dipole_moment: 2.816
 S           0.20248287816872    2.25905531511275   -0.66753630301055
O          -0.77189177953592    1.88411093943194    0.34094212364261
O           1.51138802156379    1.64731742194992   -0.36082791358033
O          -0.21232901866118    2.02339331554399   -2.02059198928354
O           0.43394547704187    3.81764387008507   -0.50198004003875
H           0.55706589948407    3.91367738142484    0.43750036651546
O          -0.45377963580691   -1.84649586281655   -1.20920968243294
H          -0.49183562425777   -2.35508932056818   -2.02036005194926
O           2.16773841692780   -1.07414530401569    1.68773201931620
H           2.89351676277546   -0.52068912312339    1.98077251725864
O          -1.14805986924027   -2.24612910740180    1.45613202913115
H          -0.95437406862871   -2.20980909935416    0.50556004135770
H          -0.50034627038297   -2.83763696402644    1.84442524516787
O          -0.04205741871502    0.14296037531785    2.21148204506097
H           1.32463178151344   -0.58845102195511    1.96298558763209
H          -0.29342905590168    0.82948457486353    1.55785678183289
H          -0.66049012362610   -0.59762261799840    2.06937605006517
O           1.82395319425128   -0.73942889683438   -0.78595098402150
H           2.03848726562335   -0.98416466321413    0.20339261665038
H           0.92042651231380   -1.16340829084927   -0.99312306330416
H           1.68723709772974    0.33728596331335   -0.70350499368066
N          -2.09672126607424    0.09679446300322   -1.42075679009133
H          -1.15325835320955   -1.07517171743894   -1.31001104186809
H          -2.30537125539876    0.42873545599074   -0.48547628342611
H          -1.51369113835272    0.82689530431272   -1.83923633792104
H          -2.96323840960732    0.03088762926632   -1.93959192903153
