    26
        -50.46846774  Gyration_radius:  2.39954859238 Dipole_moment: 5.640
 S           1.22905563307265   -0.49611890390057    1.24745898323038
O           1.03809049557143   -0.84148073957526   -0.15663198533620
O           0.00442026884335    0.17004367213144    1.75402214803883
O           1.58958601355934   -1.63475642564126    2.04805274060521
O           2.36783088407337    0.56538014507127    1.32129613025382
H           2.14092347695565    1.25357060770020    0.65049708572750
O           1.58683348691746    2.46475058346887   -0.37366080986422
H           1.96824334461456    3.29039131443782   -0.07012614802104
O          -1.89343012451379    0.37181090425115   -1.58257573123680
H          -2.44006563089246    0.33975213976117   -2.36852652848632
O           0.11336589350785   -3.28813390989956    0.59794914602949
H           0.61835004669268   -3.21402775403115   -0.21749878945032
H           0.68075897245106   -2.83247131295293    1.26265044637617
O          -0.90449508371084    2.22798911222491    0.37090403540468
H          -0.63009763469717    1.54076215272359    1.01678024693653
H           0.62153096774816    2.48880832222394   -0.11975254880246
H          -1.41493178506528    1.75857112054382   -0.30319080165811
O           0.59940085918127    0.59502807292911   -2.28298866348519
H           0.87426159403646   -0.03184281521198   -1.57554966458404
H          -0.94807113904248    0.46308022377945   -1.90829255156058
H           1.01302370482322    1.42686108721504   -2.02438769096772
N          -1.68043652383468   -1.33788096675023    0.53306496393670
H          -1.08341631150254   -0.68280588758542    1.14164537448658
H          -2.56854733605906   -1.55355998419031    0.97393019670900
H          -1.81396024596631   -0.84193505277972   -0.37373591799108
H          -1.06822381676504   -2.20178572594081    0.43866633370958
