    26
        -50.44556924  Gyration_radius:  2.47123549206 Dipole_moment: 4.571
 S          -1.95201138965273    0.40803603320205    0.30310226195757
O          -3.13826737182294   -0.37607042215936    0.45129687396095
O          -1.40329669060551    0.89030789979489    1.58084696257182
O          -0.91221680932166   -0.15320752929346   -0.52601100059420
O          -2.37687406911111    1.76378954883762   -0.47934609686415
H          -3.28496293510588    1.93087774372476   -0.24110305478551
O           1.54490089645145   -1.22846954151858    0.98061637993118
H           2.04378801556872   -1.50907458880529    1.75069072899879
O           0.36162817345504    2.33636534664618   -1.16758979784947
H          -0.59940128715133    2.34273033803289   -1.06665753726157
O           2.70633879181043   -0.99141863316794   -1.54553991929829
H           3.43245565574214   -0.40840525900815   -1.31779511324378
H           2.25049097288000   -1.21377115111309   -0.71822148470569
O           0.95346814477534    1.31334308608750    1.02639445667601
H           1.25474001710247    0.36146866323344    0.89926927496818
H           0.79978644085100    1.76817939693354    0.06096687688351
H          -0.05274546718062    1.18979044965091    1.36353892046821
O           0.57657766482501    0.27376049471413   -2.72704838196832
H           1.38894092936169   -0.22094334355624   -2.51498090841852
H          -0.10190285530035   -0.10639642928053   -2.14537666968118
H           0.53359800363558    1.63688983278060   -1.86973446516698
N          -0.88576402156442   -2.07314718450538    1.63977972475203
H           0.61030283600369   -1.57691388212733    1.11133358206446
H          -1.48333061765069   -1.53730373351658    1.01717835153216
H          -1.15079336658557   -3.04762680386390    1.55420936299548
H          -1.11544964138448   -1.77279034173990    2.58018066207595
