    26
        -50.44606569  Gyration_radius:  2.47136028022 Dipole_moment: 4.366
 S          -0.10817323226764    0.96482934664658    1.80845757713223
O           0.79985279188933    1.87350074408276    1.08107917895446
O          -1.09672144000321    1.64879125422793    2.57846639960419
O          -0.57521455384631   -0.09383863826428    0.94542589114837
O           0.86570818197344    0.20450627139322    2.85864265080944
H           0.85690929784758    0.74767720516965    3.64179434962647
O          -0.39832172129494    0.52291701839434   -2.15921696488629
H          -0.28659364983654    1.09209237456233   -2.92332453747994
O           1.91310290269261   -1.54986303322448    0.86277451714488
H           1.68371996159803   -1.10329946875043    1.68910263281866
O          -0.60851484008385   -2.25387392277944   -2.29573608908400
H           0.17058212185787   -2.45492362862743   -2.81676297247661
H          -0.67981284336485   -1.28699608498436   -2.25209203201926
O           1.73682179449099    0.40756861459527   -0.66144947856124
H           0.93289090507070    0.32287512028059   -1.26078942016668
H           1.41284072560852    1.10539993265049    0.07420602286748
H           1.84758160543844   -0.49731400869284   -0.07683052375895
O          -0.35286196733376   -2.71840797992819    0.39718938882728
H          -0.73318907269115   -1.87623353458653    0.69630636419152
H          -0.52711668476177   -2.74400700821182   -0.56134690430941
H           1.12182398649906   -2.14089218539527    0.66872822556671
N          -1.67639004584898    2.07315925106237   -0.43906636744723
H          -0.96125021518263    1.04100579035271   -1.50346290341678
H          -2.35488442725388    2.80199314789799   -0.62808525237402
H          -2.08928822838387    1.42320244823942    0.22043140074012
H          -0.89350133283189    2.49013098389588    0.05555884655156
