    26
        -50.44606556  Gyration_radius:  2.47145852433 Dipole_moment: 4.367
 S          -1.61100901874881   -0.03338976649730    1.27170584985206
O          -0.92716583716670   -1.27465546772644    1.68499023215989
O          -2.09999312698824    0.73693788928421    2.36969932970387
O          -0.83894736630278    0.67195729104825    0.27669790636700
O          -2.90653611871463   -0.56061330561925    0.45092289289772
H          -3.59306492781654   -0.65428006849070    1.10541580892732
O          -1.38244583863359   -1.15069259211432   -1.89075330578731
H          -2.08698945573824   -0.99902218443671   -1.24609066183936
O           2.24648610019622   -0.05197408309689    0.20401846216193
H           3.05262355377162   -0.43849321136895    0.55194302446361
O           2.02720921858858    1.10223345817774   -2.32416247455023
H           2.38588228603028    0.39600093406193   -2.86407321176279
H           2.13092981829805    0.83251080465082   -1.39761273892679
O          -0.70933782652657    1.31218160234156   -2.33271410340808
H          -1.14166595728463   -0.23055642733662   -2.22077602684707
H          -0.81995086423743    1.40829016744292   -1.37251522145682
H           0.25162786272291    1.37934264715833   -2.48046755710651
O           0.40835045725591   -1.83463130266754   -0.30707594925124
H          -0.30852225610513   -1.55896356156633   -1.07200995253623
H           1.11685273252446   -1.12328517592110   -0.24069386164569
H          -0.15607261052465   -1.69239671876842    0.58354337761438
N           1.00171968543684    0.79357814555106    2.37939066802616
H           1.77415514353870    0.36602060226850    0.98976554724837
H           0.44515126225071   -0.02480344214496    2.60730821656494
H           1.40355015328775    1.15125184281006    3.23839332044826
H           0.33716293097062    1.47745194309094    2.03515041872585
