    26
        -50.44556654  Gyration_radius:  2.47053333383 Dipole_moment: 4.560
 S           1.83001334461749    0.46496741536119    0.69834225229810
O           2.34603536637111    0.90227624983459    1.95816021824218
O           2.03030075952668   -0.97154620066318    0.44892363656100
O           0.47649428004499    0.85881166439609    0.38878300710385
O           2.71382166552252    1.19121808680063   -0.45144530103576
H           3.57936259020864    1.32446633707623   -0.07402284006502
O          -1.61967356408022   -1.36726960670780    0.57794682681346
H          -1.95349561197540   -2.23380372777305    0.81943309138948
O           0.72174614822227    0.63285392717348   -2.45990502771292
H           1.49984080313592    0.93069462213050   -1.97045861662299
O          -3.08529697798594    0.41178843983561   -0.99392797682190
H          -2.62849616114442   -0.12234357336127   -0.32473222159156
H          -3.25087759149126   -0.16094532889510   -1.74465824291697
O           0.28315691360115   -1.47536960890230   -1.20432229782778
H          -0.52223943125343   -1.36763682836869   -0.61009107981774
H           0.39540853525038   -0.59235176458739   -1.81167010796522
H           1.08972417704807   -1.35910598995345   -0.51333275873967
O          -1.04133257048018    2.20223961423043   -1.38133387383845
H          -0.56961515505714    1.99398834811034   -0.55832285221917
H          -0.00052322947049    1.28192178075769   -2.19802096752226
H          -1.89435498272701    1.73804309958819   -1.30109337385105
N          -0.04032435755968   -0.86870403318891    2.65549360603160
H          -1.05470966024383   -1.06020340251839    1.35172077687193
H          -0.42909787244019   -0.51950333698072    3.52386967328715
H           0.53171503597855   -1.67551675262304    2.87702827000012
H           0.59241755638536   -0.15896944076113    2.29763617994500
