    26
        -50.47104608  Gyration_radius:  2.54689817088 Dipole_moment: 4.087
 S          -0.97505188974139    0.50806164653255   -0.08017201455346
O          -2.33742357717670    0.62553032495627   -0.80331766699206
O          -1.21399660549437    0.42778258725303    1.35933969314896
O          -0.33811322148059   -0.73575306714220   -0.55618835239236
O          -0.17400113765350    1.66327026754537   -0.42418390959896
O           3.32374835864018    0.57485270172588   -1.55462171246550
H           2.49468727295847    0.62651800848249   -2.10159356187568
H           3.66565885489745    1.46955404847477   -1.51563002435441
O           0.93323062901500    0.74267447238746   -2.63460816849605
H           0.51202708329563   -0.12115877124906   -2.60480805971259
H           0.50600643793719    1.24375812962141   -1.90671211452587
O          -2.74577611440190   -1.61301952955353    2.06339244170644
H          -3.48021041177358   -1.25257711725174    2.56329472819535
H          -2.13425744019985   -0.86215907280052    1.90006825422521
O           1.07881849611240    1.52708696337105    2.04125479406035
H           0.17411617514659    1.14493205211317    2.03008238775399
H           1.01646761455529    2.25314726132184    1.41065461892100
O          -2.80879729710081   -1.88984947522801   -0.60163942633774
H          -2.94427679036900   -1.98260674075428    0.36595285419838
H          -2.71145642758867   -0.30601146833509   -0.80333919622279
H          -1.85277803075727   -1.96737746628075   -0.72790470914793
N           2.02487911885826   -0.43286904407386    0.52886765427901
H           2.65736576109951   -0.05902100531937   -0.23342187265002
H           1.09744987556703   -0.68415046156783    0.07459590998377
H           2.43451904871252   -1.23917570341778    0.98877577485930
H           1.79716422695421    0.33856045917855    1.22186167799027
