    26
        -50.45437187  Gyration_radius:  2.50775652067 Dipole_moment: 3.479
 S          -0.11690835319569    1.10316121750904    1.94764675560573
O          -1.20325498181996    0.51482179742262    1.17201784910206
O           0.47122862730882    0.11956070608228    2.85352988736194
O           0.84672340440309    1.78463692726368    1.11869482998197
O          -0.76908508452625    2.19940334230928    2.88730718425916
H          -1.08756856933336    1.67979220878383    3.61886830217795
O           0.52540935589689    0.12632122273166   -2.49861882020174
H           0.85867159908888    0.50002962789598   -3.31513380860961
O           1.18241767762643   -1.79349945988553    1.40221632044828
H           0.96827224074394   -1.09230846245929    2.12685223300209
O          -0.85230408500105   -2.16382303150732   -2.07751191560670
H          -0.39321088086429   -1.32908184285651   -2.29592964335364
H          -0.28543264424920   -2.87758903960275   -2.37373295889279
O          -1.14345308217969   -2.05516160145461    0.57949795904752
H          -1.36625120667698   -1.12144345146026    0.79227574932752
H          -1.15815195605708   -2.12915427920516   -0.40244957437643
H           0.19980954401833   -2.04726680967487    1.03720865358271
O           2.05140327258881   -0.12149271990631   -0.26287267020206
H           1.57537102069137   -0.10564817413219   -1.11721625720721
H           1.74325183024568    0.67472986701730    0.22397745760232
H           1.63358299371338   -1.21415301227813    0.66053733654586
N          -0.80593921886784    1.96272268634186   -1.21071401707796
H          -1.58361894474295    2.49968589029720   -1.57363496891072
H          -0.03518521348743    0.84816360522679   -2.05378957339430
H          -0.11901146606030    2.60719964976020   -0.83457180694966
H          -1.13676589926468    1.43039314578342   -0.40445452325584
