    26
        -50.44606576  Gyration_radius:  2.47144734966 Dipole_moment: 4.362
 S           1.91551865325407    0.33753278747317   -0.65757666432272
O           2.76310968474685   -0.12306813516529   -1.70987272700625
O           1.30999947822394    1.65643943845018   -0.92798925460667
O           0.92535662703831   -0.59148991810897   -0.16742613116516
O           2.86444648622454    0.60419347627716    0.63015855354041
H           3.71018750001956    0.85201340536560    0.26717017273184
O          -2.07838429818990    0.14730606519366   -0.86928393297338
H          -2.76475277841140    0.62699621903729   -1.33735934787689
O           0.66656642953611    0.58123068535797    2.45400261031926
H           1.54174730186044    0.59276670742793    2.04311757819956
O          -2.56139981172584   -1.63226720829570    1.22149703466522
H          -3.10393756056498   -1.08206540511878    1.78874102200223
H          -2.39734669545456   -1.12813513603367    0.40857890980639
O           0.05208756928661   -1.89814309190971    2.01617572293534
H           0.39763101720206   -0.38871961330472    2.44468546717145
H          -0.90238953985663   -1.98162363177244    1.83776567637906
H           0.45410744348753   -1.73872837146006    1.14651138551126
O          -0.59976641324855    1.69466529682517    0.62602450551331
H          -0.13308799591417    1.21259844476038    1.47657389458996
H           0.21656040521287    1.78229026729173   -0.05144171077171
H          -1.20773274374436    1.04040172619176    0.16252650900044
N          -0.18066449896094   -0.11779910162154   -2.69226353209858
H          -1.36436366046298   -0.05687942464597   -1.55034012091368
H           0.36635063330936    0.71987604864010   -2.51770793757384
H           0.38912624844565   -0.88207796278757   -2.34719893952124
H          -0.27896949131459   -0.22731355806800   -3.69506875354453
