    26
        -50.45437104  Gyration_radius:  2.50769485019 Dipole_moment: 3.496
 S          -1.41120838766053   -1.71305186786056    0.31476633779706
O          -0.10760110212965   -1.48771617338875    0.92959474546577
O          -2.46974194719716   -1.05724045161663    1.07854929806930
O          -1.42079228022317   -1.39387790957786   -1.09163404834009
O          -1.70869040826596   -3.26456727589509    0.43376818861369
H          -2.03451153971213   -3.34392243141980    1.32484592689225
O           1.54569977674660    1.22271356063457   -1.62722064232241
H           1.94221504734411    1.45236161768963   -2.46835116937077
O          -1.81436676608419    1.35640675026996    1.20455321216989
H          -2.23092232007039    0.41366488737131    1.22809010856733
O           2.15481315028557    2.08123143036137    0.86506326331383
H           2.01732168749452    3.02968516889023    0.86435997653575
H           2.01001432877972    1.77405389971681   -0.05141579145329
O           0.33094465806070    0.73337854092016    2.28395307508304
H           1.08515031417326    1.19567651039146    1.85114497808954
H          -0.89331545660457    1.20894425284541    1.74555096553376
H           0.30465675280573   -0.17324087229812    1.90436485249100
O          -1.14095812665142    1.23297100545442   -1.21494269054818
H          -1.31717030695978    0.27175317247532   -1.31938783149542
H          -1.55449093958158    1.45828775214589    0.19883621900176
H          -0.18334150343420    1.34247367908221   -1.38158614052513
N           1.42022423774980   -1.37529787974493   -1.43357035980741
H           1.56694342706958    0.20858834769622   -1.56088631100921
H           0.67993900473344   -1.67634883997473   -2.05808062598253
H           2.19750966467457   -2.01732005150829   -1.52543418610877
H           1.03167899465307   -1.47960682263271   -0.49493132065600
