    26
        -50.45437063  Gyration_radius:  2.5077392041 Dipole_moment: 3.502
 S           1.70811139463587    1.44675727928703    0.12318827103926
O           1.60810277948722    0.22820755184948   -0.67263399161333
O           1.14993395229138    2.58849315218019   -0.59700613614477
O           1.18110499782579    1.28123893807292    1.45541766155771
O           3.25260301743481    1.76331740002770    0.27860663938813
H           3.45866731094186    2.19199445611991   -0.54626783767918
O          -1.41774601472630   -1.74047521471577    1.22127408707619
H          -1.76231854427671   -2.23942959390290    1.96275764804464
O          -1.20191523515536    1.94412713047561   -1.16645827310880
H          -0.27610812799475    2.36430929884479   -0.99575885424454
O          -1.87596535825328   -2.04166987255857   -1.42803705064031
H          -2.81678345861814   -1.91060310526575   -1.55556201648417
H          -1.71422725284553   -2.00941668373537   -0.46463865192276
O          -0.37419863095931   -0.04838027009035   -2.39129366920446
H           0.46432601291835   -0.06524755399835   -1.87812018540360
H          -0.87829759214666   -0.85279155195991   -2.12925898721208
H          -0.95367786147297    1.09766362216249   -1.78665353353561
O          -1.42746034043596    0.97673335239277    1.14358200624788
H          -1.44769066292036    1.56141664575783   -0.22708158877989
H          -1.53874468313671    0.00540457915125    1.17347163711096
H          -0.49708073594419    1.14276892754882    1.41326780696208
N           1.17603653942787   -1.57939428064701    1.44358087664563
H           1.81522817366956   -2.35854261480739    1.53899207056241
H           1.41187473688440   -1.07861429053333    0.58539987225082
H          -0.40502511577737   -1.74868281427698    1.30835512887023
H           1.36125069915459   -0.91918448738505    2.19087706021379
