    26
        -50.45437024  Gyration_radius:  2.50777450977 Dipole_moment: 3.508
 S           0.98364214804266   -1.41497369665118    1.43430628288028
O          -0.18418533358525   -1.96107632913972    2.12121900636556
O           0.84505038031561   -1.54229509273002   -0.01236016849911
O           1.32724079816370   -0.07456461344847    1.84066599070834
O           2.19341064569362   -2.34553981388357    1.85887312059139
H           1.78905113983675   -3.20695857072488    1.89064954997144
O           0.05054080513297    2.30654346097227   -1.09874387538998
H           0.32308028419029    3.21384128865569   -1.24024878770839
O          -2.15514682261571   -0.73297252461752    1.18450701726994
H          -1.45763917583699   -1.30846146609764    1.67975640666645
O          -1.63304029798864    0.76033762612444   -2.54615254784534
H          -1.00177128284711    1.35043594144735   -2.08936998265689
H          -2.48470353435414    1.19969644764516   -2.52976149643621
O          -0.81116526226119    1.38845476646318    1.31040114489632
H          -1.73356755513003    0.22039151136019    1.23811824594110
H           0.01897096693182    0.96319577357238    1.62015086462741
H          -0.59274635671434    1.78815891402179    0.44475412873851
O          -1.55736620065036   -1.49002310146815   -1.10147223766100
H          -1.57500704080032   -0.73601392431712   -1.73469826687018
H          -0.61531199487624   -1.62435624039162   -0.85406155132427
H          -2.03631858685905   -1.06362563371714    0.16522436561555
N           2.17253895388426    0.83380304162031   -0.73660660598845
H           2.52033618033624    1.05180239754897    0.19083908242678
H           1.75146673398010   -0.09239564863857   -0.64892447544317
H           0.90049356022789    1.75441207549864   -1.02110065595293
H           2.96214682780493    0.76218340093349   -1.36596455497480
