    26
        -50.45437129  Gyration_radius:  2.5076893912 Dipole_moment: 3.492
 S           1.57674416354109   -1.50120938845953   -0.53363665940396
O           1.65483701405323   -1.31163609542795   -1.98001181652663
O           1.73374466143511   -0.23215880192926    0.16840588424598
O           0.40996736106866   -2.23057815228564   -0.10152041588626
O           2.83510825912032   -2.38780071502248   -0.15913738730990
H           3.50135263817882   -2.06148914570384   -0.75594234901909
O          -0.10872974738581    0.37741708910894   -2.53527790348325
H           0.63797240548897   -0.33101222933589   -2.47754725205583
O          -2.08422670581175    0.50619421289485    1.39044448988242
H          -2.83580493124118    0.32678492925547    1.95646843721945
O          -1.11958945651672    2.86841304379169    0.49114550744320
H          -1.48527334472514    2.05077505306696    0.88225535091458
H          -1.82179748924281    3.26660926080729   -0.02542639572525
O          -1.65465650673705   -0.81143509982178   -0.94798059922536
H          -0.86486993383860   -0.05086329183049   -1.95709465188749
H          -0.99314465784166   -1.46817504997087   -0.63640057107671
H          -1.90539766251698   -0.29686268208732   -0.15480072830075
O           0.93885067313365    2.00470741004966   -0.98283046077435
H           1.36850256523139    1.29095152803251   -0.46073859094864
H           0.30256563151453    1.18568427516104   -1.95184550276998
H           0.26039671192417    2.41068486861910   -0.39559038205801
N          -0.00401476233132   -0.76324966198787    2.32007132603321
H          -1.28262735591619    0.04639886719648    1.81381472265931
H           0.71759861380961   -0.45415034099702    1.66690193968148
H           0.36838848359736   -0.68920202743265    3.25845772726637
H          -0.14589663799551   -1.74479786569178    2.10781626110276
