    26
        -50.46846776  Gyration_radius:  2.3995228293 Dipole_moment: 5.641
 S           1.53531634811759   -0.80922269614942   -0.54934490792284
O           0.76538298993092    0.31982580604475   -1.05896338834722
O           0.71220936631913   -1.55266503766682    0.43547573236198
O           2.01521386430515   -1.66460578614665   -1.60075892602663
O           2.74970825135576   -0.23394338123049    0.24010485266727
H           2.37837068833573    0.45027159276296    0.84757083633230
O          -2.28797791009519    0.84956261902934    0.52122882395116
H          -3.09643890002926    1.36206451929526    0.48461555251569
O           1.64503723941820    1.45731385040814    1.97494978344131
H           2.22663958891183    1.50382719023439    2.73580243972130
O          -0.12672297976006   -1.24368512053895   -3.10124762474629
H           0.02552508605694   -0.30812810718909   -3.26574975187388
H           0.71296798063069   -1.54340179094862   -2.68119012802110
O          -0.36400534180954   -0.15498053458789    2.40070487750724
H           0.86938350900904    0.89014155467617    2.24616036865350
H          -1.15785266262748    0.17002174423896    1.95415343287123
H           0.04063135351316   -0.79899173945705    1.77916866215854
O          -0.26165637311144    2.41837622917262    0.08914527857435
H           0.17630404631318    1.73218133302688   -0.46433425220317
H          -1.54181878977831    1.50048072522265    0.35458921826907
H           0.33263299356955    2.51794476638950    0.84200588238294
N          -1.50969169461814   -1.38019735379367   -0.84401140883613
H          -2.17624034906516   -2.14351155794320   -0.79219521488208
H          -0.63678430683223   -1.57381223214530   -0.24700509113201
H          -1.11117479447307   -1.27216321386932   -1.82348942959035
H          -1.91495919359362   -0.49270334883138   -0.47738561782865
