    26
        -50.45437230  Gyration_radius:  2.50804666569 Dipole_moment: 3.468
 S           1.84644666312511    1.26287390239708    0.14842093778241
O           2.64204498425460    0.71071714496530   -0.94544340892572
O           0.51864252868429    1.65006724157501   -0.31444958831125
O           1.79841771019952    0.42151047895530    1.31905206267677
O           2.59018915837462    2.59629495774639    0.57152059206004
H           2.93222362552486    2.91187480074128   -0.25898489966549
O          -1.79502485516218   -1.31633833178211    1.25521097448275
H          -2.21816200123053   -1.74889058212710    1.99770145534846
O           1.29616865017487   -1.19095057899540   -1.86485332947029
H           1.97287380606662   -0.46163182792748   -1.59541153003670
O          -2.70199755866264   -0.91718402390928   -1.26257924735622
H          -2.85731165562499   -1.78648043952111   -1.63509046134204
H          -2.44644935737032   -1.05132321940304   -0.32878921621663
O          -0.59576522222109    0.34819339618792   -2.32061086155843
H          -0.29136693162282    0.98885395747154   -1.63986143726705
H           0.44619318228172   -0.60509817311640   -2.17606684425344
H          -1.44192148816526   -0.03111409801089   -1.98888900575966
O           0.75631059537430   -1.86501847436700    0.49616357164477
H           1.21190225341708   -1.10642524315118    0.92400482904154
H          -0.18614557864066   -1.77669705289216    0.74278610697380
H           1.04516181765131   -1.61112143360111   -0.94252860474314
N          -0.91121829375188    1.01303082920651    2.02681753029807
H          -0.09926901986791    0.83677793611710    2.60844199764878
H          -1.46169467700989    1.74462030003423    2.45869510979271
H          -0.53352879178768    1.37569969190773    1.15005230136389
H          -1.51671954399495   -0.39224116850763    1.57469095577999
