    26
        -50.45437228  Gyration_radius:  2.50799123012 Dipole_moment: 3.469
 S          -1.03507713609706    1.19359402005120   -1.59046149828118
O          -0.67318025921598    1.60679345463483   -0.23938981004920
O           0.06803010364809    1.42109119128117   -2.52088756968002
O          -1.56870042263540   -0.14586068919995   -1.63284352207840
O          -2.19146661004884    2.16404976760743   -2.07129540976884
H          -1.70570124907750    2.91681600380903   -2.39350368011259
O           2.02009387305557    0.17197149957700   -1.57068187508295
H           1.31998417921629    0.71505385027184   -2.09706626137647
O          -0.12249201892203   -1.99016724334741    1.59817791467530
H          -0.46203341649505   -2.80203425429832    1.97637650166069
O           1.90292654305170   -0.40586343260013    2.43905713024968
H           1.15514557518534   -0.99170707922229    2.20887247889677
H           2.69389460512160   -0.94685599348055    2.42365472618105
O           1.84542816795642    1.47239007361486    0.53504256986499
H           1.87899844297004    0.87567949425171    1.31781216644054
H           2.08664110133898    0.72581182446520   -0.64787362178970
H           0.89605248146099    1.67464223473077    0.37904031833878
O           0.46383652062457   -1.73059912118941   -1.04303869719468
H           0.33583778310442   -1.90360804870398   -0.08883182105337
H          -0.35529221040729   -1.27522056487642   -1.33935831813634
H           1.49994569197532   -0.70671238252860   -1.35233283211398
N          -2.11393306288058   -0.36163145378081    1.16842192866387
H          -2.61735080544757   -0.72502109315629    0.36644999176913
H          -1.61872421994416    0.46004456137670    0.81843018864008
H          -2.78879902282835   -0.05264093719993    1.85681790562132
H          -0.91406463466793   -1.36001571207260    1.49941109571009
