    26
        -50.46846775  Gyration_radius:  2.39949335936 Dipole_moment: 5.640
 S           0.11236858526338    1.34948385334422    1.21636299441453
O          -0.91915801127356    0.36419985332298    0.91219406143458
O           1.10489831966162    1.36861683079033    0.11433602355170
O          -0.43428509132271    2.65537888108956    1.46790282911739
O           0.87445195157524    0.85837777702766    2.48400958472873
H           1.10265942261180   -0.08711612007140    2.31379929085821
O           1.61167708139462   -1.62533392541606    1.86879323267998
H           2.40779664496493   -1.81638889597023    2.36780482360421
O          -0.30961541033909   -1.57946426159187   -1.90692653559312
H          -0.69545664343882   -2.23278548435389   -2.49164286356854
O          -2.39580924805113    2.31579141381196   -0.27952591250127
H          -1.73094818675438    2.63493901742814    0.37435749431632
H          -2.85135912814266    1.60991573175360    0.18918491553797
O          -0.84696291228518   -2.21340207799791    0.55550325706466
H          -0.54095783677577   -1.87349943077766   -0.97515494191934
H          -0.07481883752670   -2.44489416952491    1.08475942346435
H          -1.01104954722691   -1.26979039283313    0.78282777147586
O           2.16197678344598   -0.94633471473969   -0.59157821562952
H           1.91417100981743   -0.02083587307464   -0.37538008575312
H           1.90126707105226   -1.45506405380223    0.92859344104724
H           1.47300180296438   -1.26407268978652   -1.19129054259464
N          -0.58283863219587    1.13319479103678   -1.80925922200241
H          -0.65492623836885    0.09975046453237   -1.92332154793414
H           0.21142911647577    1.29663155441626   -1.10341839565115
H          -0.39839435243537    1.59362874270320   -2.69447035639874
H          -1.42911773308155    1.54907318868239   -1.31846049375340
