    26
        -50.46875466  Gyration_radius:  2.4984820468 Dipole_moment: 1.330
 S          -1.32468499606496    1.68230258948904    0.30173827506379
O          -0.84457956449447    2.15479490349712    1.59085278803548
O          -0.22610831693767    1.52990699230726   -0.64943548733229
O          -2.15438762308082    0.50114027261363    0.38131818531640
O          -2.25444826793737    2.83435311299878   -0.26829895887213
H          -1.77853560759747    3.63096496438785   -0.05442619456681
O          -0.76178810912660   -1.54076214875932    1.41669107565245
H          -1.41737062898127   -0.87407586346981    1.12774259842686
O           2.37311313875795   -1.37018363289046   -1.47986747791806
H           2.34207684989286   -1.10983744797483   -2.40220409899972
O           2.27868836487765    0.85272715180729    0.05240285147974
H           1.46208778147888    1.23587936064473   -0.32332152006033
H           2.45117048801831    0.04328066089552   -0.47368622014943
O          -1.43862729241668   -0.33393377953276   -2.05630525865198
H          -0.46793810611948   -1.97718448383075    0.59598968576053
H          -2.15605569784145   -0.26001312099009   -1.41024604795965
H          -0.85250323684832    0.39966501309064   -1.78249083889383
O          -0.13164212324220   -2.39003905325338   -1.11724820685338
H          -0.48720621395557   -3.19777135724495   -1.48987656226149
H          -0.63677092275060   -1.63481547658676   -1.53641914719842
H           1.52708269297271   -1.81894741871096   -1.29265972186917
N           0.92050613131577    0.31841613869136    2.20651916901499
H           0.34923997905016   -0.55208097310874    1.99513523756951
H           1.35359777772272    0.28013323569822    3.12213327730390
H           1.63286112959186    0.47290820370995    1.41961509557301
H           0.24222238372200    1.12317212651220    2.12634749240249
