    26
        -50.46846777  Gyration_radius:  2.39950061089 Dipole_moment: 5.641
 S           1.75364551361680   -0.35237707080975   -0.33694396455527
O           1.05639567877827    0.24947604116496    0.79395765114291
O           0.83259620437098   -0.41317913777270   -1.49795531395568
O           2.97473314992635    0.33597708826984   -0.65721429397913
O           2.07991627167652   -1.82862887485258    0.04146123169493
H           1.23856777689472   -2.21183075484757    0.38820189085009
O          -2.33519304647639    0.82990659515662    0.29026380766200
H          -3.11277027333124    1.23972819418684    0.67102764685328
O          -0.27012686287159   -2.83564114978490    0.78602090216752
H          -0.24308204601865   -3.77781091157270    0.61022616294357
O           1.98182467479435    2.69325277739379    0.03071207535650
H           2.50604069106739    1.92610700417712   -0.29805839028754
H           1.87770677590744    2.50909676155430    0.96915611295133
O          -1.05190306855264   -0.45824130582070    2.14717457135877
H          -1.02897675230531   -1.41451438244109    2.02493517182810
H          -0.18745113520859   -0.15630035792293    1.78586691363034
H          -1.88288210434087    0.34468157498058    1.04400952201672
O          -1.52210267020322   -1.54275761583037   -1.10549684445771
H          -0.66072885909194   -1.17925118302853   -1.40648945582137
H          -0.82939594232884   -2.42941610805271    0.06550803777277
H          -2.00466142268804   -0.79005358489608   -0.73688012663777
N          -0.25897225500496    1.88424455741141   -1.13125209040883
H          -1.06410021196219    1.65680254121689   -0.50977907647371
H           0.16073823602874    0.93958449135780   -1.42665472009509
H          -0.55098315320716    2.43217751604328   -1.93381746299022
H           0.54116483052752    2.34896730471627   -0.60797995856704
