    26
        -50.46875457  Gyration_radius:  2.49833817836 Dipole_moment: 1.321
 S           0.52088484939239    0.21234770932102    2.08749432950664
O          -0.40064621248122    1.27001259068045    2.47211386953654
O          -0.17811556656210   -0.88093648368920    1.41597297826943
O           1.66798966244400    0.67636675562790    1.34009602167915
O           1.09143345738314   -0.38497527803128    3.44185263239241
H           0.32728641514429   -0.42030831348427    4.00898774731430
O           0.88089624852098    1.80911144570089   -0.95715697433441
H           1.30658666229366    1.52438216399036   -0.12318737344260
O          -1.28176029111453   -1.60897724141654   -2.33779918353772
H          -1.11398574910737   -2.54038407333490   -2.18371238096886
O          -2.36920768140623   -0.54704496902618   -0.10451034265905
H          -2.10614510347046   -0.92892368320997   -0.96859274797286
H          -1.67617486465088   -0.82882169667931    0.52410067607580
O           1.92606421311349   -1.64190363691762    0.03160591941514
H           2.38599601941321   -0.89964123231644    0.44998389791224
H           1.06930227789974   -1.63186342883053    0.50349316142603
H           0.97543917195268    1.04923121994867   -1.56043658232063
O           1.24505780590998   -0.58256079714850   -2.25585966095732
H           1.53650017977349   -1.03814509341901   -1.41408036377446
H          -0.40783417472082   -1.17920430068372   -2.39897227015477
H           1.94486945438806   -0.71642224262497   -2.89625149152886
N          -1.49216942652156    1.88709385054997    0.17109428405501
H          -1.14688880383735    1.78098636244922    1.16293314135046
H          -2.09715995154145    2.69361467481764    0.06676005367274
H          -0.61557869288048    1.96215291467512   -0.42446020600227
H          -1.99263990931173    0.96481280305777   -0.05146915495961
