    26
        -50.46875459  Gyration_radius:  2.49828861293 Dipole_moment: 1.323
 S           1.92995602118330   -0.24283701566505   -0.94368221502849
O           0.92057254626170    0.79176367332382   -1.15711223261150
O           2.80127629457912    0.09230988346419    0.17170964650046
O           1.35541568803516   -1.56693254967931   -0.86236471556749
O           2.85185146767738   -0.24256614480435   -2.23470204393901
H           3.41185398686897    0.51720661274436   -2.10830519900911
O          -0.17342453140451   -1.78086619977864    1.32777776191081
H           0.42319559798933   -1.88521209682448    0.55904502606665
O          -2.68159755491723    1.54135200502222    0.35860056575383
H          -2.94966978997024    1.87318149010512   -0.50018645713099
O          -0.12622078737214    2.29026969489719    0.81325985998877
H          -1.08948778442352    2.12211010287629    0.73876688353316
H           0.26385496197421    1.92385841578855   -0.00432337983154
O          -2.38679992676053   -1.12179979776352   -0.15697562726038
H          -2.62883082250606    0.57068933179503    0.27355101295132
H          -1.84409689952646   -1.02654172163248   -0.99209984445981
H          -3.08000448847372   -1.75378736734892   -0.35134516823762
O          -0.82705100928405   -0.85428640330859   -2.23397250026150
H          -0.32526331722204   -0.05152552629070   -1.98784274408052
H          -0.17430644024545   -1.54952115422371   -2.06623575846675
H          -1.04693658553549   -1.58142789700028    0.94360918641229
N           1.07701984100228    0.39058146330903    2.12229656920148
H           1.89837305343409    0.29181075129140    1.46670275230965
H           0.49756563962024   -0.48857301793205    1.98046951991125
H           1.37416094232495    0.50307867823286    3.08480853899354
H           0.52859387668872    1.23766478940481    1.75855057236989
