    26
        -50.44612492  Gyration_radius:  2.48566094079 Dipole_moment: 2.136
 S           0.97584048680156    1.55523921115673    1.27063289438651
O           0.13312200321645    1.28335022831896    0.12969930382365
O           0.35300876203432    1.33000364030096    2.55043944878629
O           2.26411051374357    0.85600690379653    1.13932889656145
O           1.32297015572399    3.10752826191494    1.20634235040629
H           1.73870958793020    3.26999122399999    2.04771969473943
O           0.19143298431196   -2.21481522282463    0.07877936685427
H           0.53190764871080   -2.99741766667694    0.51398039476789
O           0.78784739293837    0.29579022693601   -2.78354110752183
H           1.06209736436193   -0.11145062945088   -3.60744340310646
O          -2.40385312585233    0.82699022807930   -0.32191538900073
H          -2.77279093508481    1.60189040184823   -0.74833595360544
H          -1.46841330062352    1.05710822781397   -0.11155074058616
O          -1.33317572860028   -1.02242938010495   -1.99722687810533
H          -0.92078693077329   -1.62641218989121   -1.36530481533637
H          -1.84824233091276   -0.39648221577075   -1.44871715168425
H          -0.09084435096486   -0.11354739998972   -2.54344528171750
O           2.03525303405819   -0.64982354115557   -0.78177329241950
H           2.18735760054918    0.04355393487215    0.02882219971935
H           1.31833851405691   -1.29227116020094   -0.43857436333260
H           1.58623822475017   -0.14360272621482   -1.56331485255508
N          -1.17921004943866   -0.91683326281179    1.82681193456831
H          -0.35308681901678   -1.69248529209068    0.79211308822167
H          -1.96252574405125   -0.50654429540777    1.32882709191394
H          -1.54585284903775   -1.40650733050519    2.63369141453589
H          -0.60945212883782   -0.13683015594467    2.16395516969479
