    26
        -50.46875464  Gyration_radius:  2.49834770968 Dipole_moment: 1.325
 S          -2.02279677928505    0.76075601801431    0.04985842621961
O          -1.94957372967678    1.59831318628043    1.23677792150936
O          -0.94240016409986    1.06974848797289   -0.88405258393320
O          -2.11979883594575   -0.65326966832694    0.33460819128219
O          -3.37410352808716    1.15521357024316   -0.68152509051805
H          -3.39977128977225    2.10404089321831   -0.60473386633601
O           0.05506394039723   -1.48484514544459    1.66048156514355
H          -0.82957152983865   -1.31146577120697    1.27941332835336
O           2.83487308483511   -0.12126525716069   -1.28291379417648
H           2.73584263713001   -0.05319726498656   -2.23419312497500
O           1.49277934726991    1.91750667615183   -0.12560927452548
H           2.09721582782541    1.25217769973929   -0.51768907816163
H           0.62446098781082    1.75581520174814   -0.54368766574678
O          -0.90875866665808   -1.33579784322333   -1.95014246401768
H          -0.80997337320512   -0.37294417601538   -1.80898287737668
H           0.58909162562016   -1.81691066308166    0.91563684760016
H          -1.60278759706518   -1.55500825330588   -1.31155386268188
O           1.20836374841848   -2.23723485768089   -0.71546239986343
H           2.33489128054668   -0.91388632606473   -1.01077195166051
H           1.35249144286097   -3.15550097975899   -0.94728506005003
H           0.41462585790389   -1.93042564791882   -1.24158776985449
N           0.46463904170159    1.07279181906956    2.11010899503599
H           0.44596456790800    0.01218629441534    2.05236927957757
H           0.78928115527455    1.40223719031888    3.01203112309869
H           1.04559945122256    1.46054481879962    1.29588863173662
H          -0.52564850310161    1.38041999818055    1.91301658431021
