    26
        -50.44612505  Gyration_radius:  2.48592637304 Dipole_moment: 2.141
 S          -1.19891512315318    1.85676937671863    0.32168542401834
O          -0.68918473741267    0.90141407428392   -0.63387352998505
O          -2.28188620900698    1.37443457373877    1.14103282968557
O          -0.10037190556602    2.42735723704244    1.11762583414275
O          -1.78410863838225    3.06790097079360   -0.52944589588755
H          -2.24234897532913    3.58741581447326    0.12425229270390
O           1.18922941276400   -1.18771860289191    1.45763477688991
H           1.46346585278861   -1.34715853118647    2.36161656184545
O           2.17205571714470    0.48302360181696   -1.87274904504745
H           3.09154920850488    0.35759219263536   -2.11495556651434
O          -1.40920950795863   -1.42250885456299   -1.59807428331523
H          -1.20591917509633   -0.52325630152099   -1.24834831526847
H          -1.70097090916931   -1.29045001562709   -2.50130856880676
O           1.89786487385781    1.11553754991284    0.57315094063306
H           1.63427436758960    0.20032944537147    0.94368652204397
H           1.95302057265656    0.98181004127395   -0.45027121530349
H           1.05222229503462    1.74812861202476    0.78808967564603
O           1.24670754340394   -1.89596389732830   -1.29026473091044
H           0.28408793687757   -1.85758311054476   -1.46313227124447
H           1.77741205614719   -0.42905327597832   -1.77475232659942
H           1.32831873080491   -1.86771603736199   -0.32760761706509
N          -1.38171733794144   -1.27658670080673    1.42364152132083
H           0.15127431989238   -1.21684810902971    1.45364906819892
H          -1.87088075730553   -1.77101500856333    2.15951545558259
H          -1.73458193871531   -0.31652457187832    1.40087417055753
H          -1.64138768243075   -1.69933050282498    0.53832828267267
