    26
        -50.45901534  Gyration_radius:  2.63426678498 Dipole_moment: 2.692
 S           1.92778617729126    0.98550515912825    1.28670659783132
O           3.12530097529641    0.33365224272734    0.82212913362030
O           1.06851265234041    1.45457052501762    0.19418022470365
O           1.15296945433920    0.20734200181663    2.24262172885305
O           2.40131063461955    2.28892137453182    2.06931104957246
H           3.26593246520256    2.45730428813217    1.70661032219700
O          -0.50811665285471   -2.39338933319779    0.28622524925763
H          -0.10544148347506   -3.03767148662026    0.87030589054641
O          -2.05720235536733    0.76682963246780   -2.38525084889526
H          -1.84739841359819    1.29759444785242   -3.15447938131671
O          -1.57236405530861    1.82953617009349    0.03826013791541
H          -1.81886433851017    1.50875644090642   -0.85634321376975
H          -0.59870603085616    1.91974419998350    0.03006347617844
O          -0.64457736853771   -1.52033030282957   -2.58726187432031
H           0.22760254144672   -1.28438309613518   -2.23711044925610
H          -1.01640000968417   -2.14010943842759   -1.95251245657329
H          -1.58181878680306   -0.08477388066983   -2.50139824747402
O           1.40781940126205   -0.90335200686541   -0.82830889843288
H           1.16811249937700    0.02655160190758   -0.61258021737176
H           2.30292792625631   -0.95678980045313   -0.46573079039413
H           0.23940872350772   -1.88256062543959   -0.10896172908888
N          -1.33951537748755   -0.18768132285477    1.64292517257618
H          -1.27544346976170   -1.07854138290812    1.11149869815176
H          -1.58663880461590    0.63537578405763    0.98391053772578
H          -1.98731002164725   -0.25753053356593    2.41901480639736
H          -0.34788629243233    0.01542934135659    1.98617508135123
