    26
        -50.45901745  Gyration_radius:  2.63430882862 Dipole_moment: 2.672
 S          -1.52056501315039    1.65947343573336    1.13247716019657
O          -0.68388251932535    1.68083669111156   -0.07246919377687
O          -2.87415564912909    1.24297731088368    0.87031948293040
O          -0.85928314550696    0.91839445762970    2.19672783531743
O          -1.60359196461062    3.16631685562886    1.64046708956087
H          -2.42230195957393    3.47729669260924    1.26571166256382
O          -0.03189112398931   -2.34138399634236    0.76752422526013
H          -0.51493768650211   -2.74092632700806    1.49239256734151
O           1.94607217047517   -0.24492412021131   -2.58099124614967
H           1.79810119248625    0.15587872420343   -3.43825230362112
O           1.94553920059839    1.36017681439262   -0.42181582506320
H           2.02708308970786    0.81966650795459   -1.23735523070315
H           1.02211890338656    1.68161100027952   -0.40603737367004
O          -1.65016530832483   -0.67619713156824   -0.55171038568213
H          -1.18430791076537    0.19091323069664   -0.54991984283569
H          -0.67584492778129   -1.75082042651343    0.30661975506746
H          -2.49552081534555   -0.43738704727468   -0.14692482651771
O           0.02966720430459   -2.10799539208726   -2.22930842945831
H          -0.72777871264417   -1.60190469351915   -1.89886055751306
H           1.27696124632906   -0.95848224827453   -2.49229738636394
H           0.30701566506156   -2.66285221138104   -1.49412279939014
N           1.40776747129487   -0.18358430898291    1.58479679863520
H           1.77419170322745    0.40817705174150    0.75521778883194
H           2.09247934566422   -0.25599912561849    2.32829034286616
H           0.52632210648731    0.31898105658455    1.92066561223193
H           1.09090744761792   -1.11824279066971    1.25885505996003
