    26
        -50.44612490  Gyration_radius:  2.48555454949 Dipole_moment: 2.146
 S          -1.96246087992513   -0.88720248143158   -0.58686891271014
O          -0.90180583456319    0.02984840425754   -0.93295206944904
O          -1.62876141174813   -2.28149524595656   -0.73260004624831
O          -2.50240679156622   -0.57293279717029    0.74561813981948
O          -3.14934677334867   -0.59972054149327   -1.60804358035511
H          -3.74969966907780   -1.32164773739413   -1.44804191894891
O          -0.17441220148331    2.90134827292315    0.12111756832625
H           0.04138982600174    3.71824549754865    0.57498811973767
O           1.16729304614268   -0.25556866391622    1.87677344622115
H           1.28395205325549   -0.68742696855601    2.72390154805516
O           1.42260301789955   -0.09171736887732   -2.12937048682044
H           0.51883696887450   -0.08394007943430   -1.73518231531848
H           1.33500709773546    0.32276124883106   -2.98901251493912
O           2.07561058509366    1.57852789576347   -0.08956086831932
H           0.69361171661810    2.45032671545024   -0.07927006262050
H           1.98328007288426    0.98624277188416    0.66865300081866
H           1.97586460189699    1.00153803014495   -0.87373800640050
O          -1.00305732693358    1.10599825306781    1.71716670082352
H          -0.79103859472173    1.82796899912300    1.00838900375387
H          -1.71340304872661    0.41424233946345    1.29484796425605
H          -0.14086446445545    0.56485126727067    1.80717052133652
N           1.05539135195599   -2.10828738454366    0.09516426242828
H           0.07511343837907   -2.24417420337847   -0.16430617476156
H           1.45270576930408   -3.01723040723275    0.29824205068050
H           1.52210737632052   -1.74108922101282   -0.72782632182351
H           1.11449008418835   -1.00946658534127    1.16474097245843
