    26
        -50.45901757  Gyration_radius:  2.63412755236 Dipole_moment: 2.671
 S           2.33646793759251    0.42474108618213    0.84079157446833
O           3.23011452132899    0.23623349768565   -0.27285887746125
O           1.18645409989167    1.27565660250362    0.51522080922492
O           1.89196197670518   -0.81011807745525    1.47059069059538
O           3.16380542130667    1.20566517639322    1.95483730576815
H           3.83515198394429    1.65635955859948    1.45122142207675
O          -0.56969634719987   -2.25866789173817   -0.80454885801307
H          -0.03990111297434   -3.05723691912207   -0.80857443903123
O          -2.70194464974557    1.61158703878743   -0.77956448775213
H          -2.73896484889485    2.47500664951343   -1.19256724547474
O          -1.29498416681345    1.37215219026906    1.50095054747357
H          -1.87095739282438    1.51428919082775    0.71859584583612
H          -0.38459576387149    1.56495581918927    1.20042758604962
O           0.93865038411114   -0.20266647128931   -1.59973347382422
H           0.02706479789081   -1.53699577059868   -1.11891160194485
H           0.87089751273317    0.46143559976739   -0.87643835619694
H           1.89639991083713   -0.32649327838192   -1.65346766880313
O          -1.64976784514284   -0.09040011655294   -2.58607160589583
H          -2.37180350229443    0.99249130964936   -1.46693885414260
H          -0.69358820754992    0.03718444502397   -2.49359051858783
H          -1.82109157514160   -0.98202462185176   -2.26846076549237
N          -0.67384616542981   -1.13461166749651    1.66971298064864
H          -1.07032724546383   -0.12702236429472    1.65052058110794
H          -0.87920366686081   -1.62820757598238    0.77844697479017
H           0.38821986924046   -1.01808028646145    1.69667733711977
H          -1.00451591540225   -1.65523314313957    2.47373308747280
