    26
        -50.46846776  Gyration_radius:  2.39951146715 Dipole_moment: 5.640
 S          -0.20306732677883    1.27573945119634   -1.28234493989050
O           0.10583281895064    1.75739291036173    0.08608039204527
O          -0.53836524992090   -0.14254376816722   -1.22444605263742
O          -1.23613202121760    2.05818367472086   -1.90527303506945
O           1.11383993019494    1.41583725817027   -2.10393409555479
H           1.74200521503941    0.75550406454537   -1.72396494627354
O          -0.07730039753327   -1.63628623846868    1.88252552913800
H          -0.22310482937863   -2.44121924421905    2.38092758930636
O           2.80246083872823   -0.25557874635520   -0.90159382344741
H           3.68779728562134    0.08235311090478   -1.04753892335109
O          -3.16504203268584    0.51619674860834   -0.94732333318468
H          -2.60073509552451    1.21134907251763   -1.35930808680795
H          -2.93549879803413   -0.27931834515569   -1.43712002271089
O           1.90410805909198    0.39754804950165    1.46137569510213
H           2.56737187859562   -0.03410771663550    0.04313945002845
H           1.28979501177751    1.03443599615870    1.03508238169648
H           1.34184236129770   -0.30554050782396    1.81466053131302
O           0.80646321819530   -2.24507912045242   -0.48448500107862
H           1.70777469600812   -1.95112392059737   -0.66091982122603
H           0.26627788479239   -1.92689946720610    0.98495647104035
H           0.24856296190468   -1.54496590664707   -0.89384066378351
N          -1.74415958669227    0.44030243035072    1.28891479991731
H          -2.41649556989068    0.34454879612163    0.47110083501559
H          -1.26902582029093   -0.45733336610801    1.52274523545852
H          -0.97809884605612    1.08583977635225    0.89873248152265
H          -2.19710659619342    0.84476500832493    2.10185135342771
