    26
        -50.45901944  Gyration_radius:  2.63367106644 Dipole_moment: 2.640
 S          -1.42994223653375   -0.65789780860157   -1.96807026130246
O          -0.75602813603037    0.57663182705386   -1.54877575119588
O          -0.61805723462189   -1.47360966810968   -2.83352265975176
O          -1.97208628185359   -1.35880917758431   -0.81354416079710
O          -2.69127686758016   -0.20173457221789   -2.82603235530157
H          -2.35842640416933   -0.19556829389577   -3.71860209441493
O           1.57355854505251    2.56945801610655    1.19181062197834
H           2.02434405348806    3.23900522296601    0.67612705758777
O           0.81665068800749   -1.77382910063198    1.50714527854948
H           0.63541649456465   -2.71485356354489    1.50063605174005
O          -1.01483814418955    2.08774633037189    0.63858913432535
H          -0.09843818507336    2.35089500337422    0.87291769726930
H          -0.96639860695011    1.73544629333000   -0.27247776734799
O           2.93027302731804    0.26313687609404    0.86237601137694
H           2.62729665897610   -0.34331812626314    1.54479207073223
H           2.58480736887307   -0.09248206017632    0.02976308062747
H           2.11056738503724    1.75130524015115    1.10865754539771
O           1.26477423268048   -0.94932011488978   -0.99350738931403
H           0.62296098626593   -0.21831645311598   -1.14346555596733
H           0.98895100747114   -1.52540489907054    0.56669645641588
H           1.04711995945335   -1.54485250461497   -1.72386034816084
N          -1.47347289187989   -0.30733657215828    1.50479885735778
H          -0.58598980615488   -0.78841501756354    1.75206768683999
H          -2.18053897486730   -0.42925113531346    2.22035851536003
H          -1.29530492702009    0.73860926413390    1.28751687364025
H          -1.78592171031208   -0.73723499585470    0.57760541437382
