    26
        -50.45901942  Gyration_radius:  2.63395721206 Dipole_moment: 2.643
 S           2.19181398842454    0.49440594940347    1.14216913512988
O           3.20464449008861   -0.28556893531161    0.47914560543045
O           1.32837213162911    1.22402186102921    0.20624806027677
O           1.38842031611773   -0.25112744343911    2.09975669840109
O           2.95648703880973    1.60256115905450    1.99209710006013
H           3.76553208103098    1.73163550569828    1.50593187818418
O          -0.89472000868455   -2.29552984771744    0.11381918376874
H          -0.55908040800522   -3.06188357546107    0.58118715967572
O          -2.11344967817937    1.36528023976327   -2.04308131223506
H          -1.89336054991097    1.93789179790712   -2.77869472027001
O          -1.20652591545341    2.04516921090868    0.39707951117365
H          -1.59419721490713    1.87577137797280   -0.48886835894104
H          -0.23803923950667    1.97071905254245    0.28319857057076
O          -1.15342115494102   -1.08575139460144   -2.62528691448545
H          -1.56557438238657   -1.70343992367140   -2.01385806331606
H          -1.80927456251288    0.46591588477432   -2.29472494882400
H          -0.22313182721465   -1.04019489906239   -2.35781706353183
O           1.13843328204541   -1.02687211051103   -1.06559122630059
H           1.09162072983462   -0.10072903779489   -0.73571180775378
H           2.04131040536217   -1.27022531881791   -0.81842378325179
H          -0.10992425940406   -1.87442032438979   -0.31342352756829
N          -1.18161093403905   -0.15257448479173    1.76358938844824
H          -1.34168460995510    0.76998342026594    1.21960342592004
H          -1.33067403813367   -0.97492682865443    1.14579667058742
H          -0.14061628253665   -0.15869768626299    2.00569138548279
H          -1.75134937756971   -0.20141363883351    2.60016794337178
