    26
        -50.44612499  Gyration_radius:  2.48593654984 Dipole_moment: 2.140
 S          -0.12820500274001   -0.77772537867120    2.08995006109429
O           0.13153846212666    0.36083465298728    1.24019624270343
O          -1.51446038230808   -1.16071480369580    2.18178593930235
O           0.74529000700444   -1.90429712719915    1.72489819670294
O           0.31769986974488   -0.34845688926072    3.55654359996373
H          -0.01291136769639   -1.05880973411881    4.09802157047681
O          -0.17340848342532   -1.09326545190659   -1.92915017578435
H          -0.35652653332561   -1.90632066274048   -2.40160083100561
O           2.61888607326459    1.15509045343063   -0.51528947951198
H           3.36765786864522    1.26388679485362   -1.10466008585357
O          -1.26037550781772    2.22970260713115    0.04903722544162
H          -0.77291677471231    1.54085684266618    0.55906787451324
H          -1.10336383966583    3.05477577344564    0.51052393011003
O           0.48900649509250    1.66641945630064   -1.94949973780811
H          -0.19050479589322    1.97600929413853   -1.31666092405487
H           1.81516610679751    1.47236422823149   -1.01597773167583
H           0.22717484477458    0.76359273399966   -2.17426083194129
O           1.85495367065613   -1.26390158701972   -0.36559022439111
H           1.42991793942821   -1.54941202381957    0.58237192353820
H           1.05605107566023   -1.21646251851016   -1.00138023943696
H           2.19325609951895   -0.29007289875613   -0.29081405092009
N          -2.23522556108017   -0.58620159823808   -0.47660825238280
H          -1.00594252914929   -0.89964715281251   -1.33933497430515
H          -2.02345659498961   -0.86139934610445    0.48577367670412
H          -2.33982276544075    0.42320828345917   -0.47078468872164
H          -3.12947835447490   -0.99005393779319   -0.72655804275905
