    26
        -50.44612491  Gyration_radius:  2.48563384544 Dipole_moment: 2.143
 S          -0.61885620828134    2.08849041532882   -0.49138014819053
O           0.22780794247425    0.96923470049537   -0.83243656910990
O          -2.01133029959226    1.91643990663235   -0.82068967041380
O          -0.41506601054650    2.48070699728222    0.91220100542564
O          -0.10074877846256    3.31814386561413   -1.35922695822710
H          -0.77663952423685    3.97562739898393   -1.22453288585101
O          -0.59209042557456   -1.28500502454354    1.71619625838708
H          -1.13320877319547   -1.42240204619498    2.49474091018577
O           2.86821506114009   -0.14662685332878    0.46106430503701
H           3.60069183843590   -0.48427798330608    0.98003405726355
O           0.03408057710686   -1.22090435821519   -2.25156472966338
H           0.07931909353757   -0.35924618529432   -1.77422647969878
H           0.55800323062537   -1.10603179714763   -3.04573890157003
O           0.98080137798918    0.73319049202310    1.91734696817239
H           0.35219487349314   -0.07099510672285    1.86297981965921
H           1.75969528900300    0.50506143154786    1.27717631953320
H           0.41787678361449    1.54621882488039    1.49062655675161
O           1.37123796805508   -2.21791575382028   -0.10838443005127
H           0.70288717436338   -2.12657340246187    0.58383551510870
H           0.90634984743085   -1.99153558522501   -0.93933937211800
H           2.36367335052986   -0.94259921815267    0.13086391418811
N          -2.19447592070976   -0.83125566811891   -0.24420611583966
H          -1.77585610599522   -1.26295192720116   -1.06173200496328
H          -3.15466957218188   -1.14678768401060   -0.18324335482604
H          -1.24523238112449   -1.09432351096390    0.93137562431884
H          -2.20466042787931    0.17631806192063   -0.42173961351400
