    26
        -50.44612499  Gyration_radius:  2.4861614511 Dipole_moment: 2.148
 S           1.26484208762889   -0.67933021602165    1.71206714627913
O           0.42946181568558    0.36789111055895    1.17256251828867
O           0.55418139249594   -1.85000884794204    2.16058884883908
O           2.35372127547420   -1.00438325554118    0.77696422637354
O           1.97445099048008   -0.06420958634617    2.99731496889734
H           2.37990838729947   -0.82474683104579    3.40257219962731
O          -0.34219755105922   -0.96027321870880   -1.97722494592429
H          -0.21562971628565   -1.70660559159623   -2.56442495544786
O           0.94565165748790    2.54760660976012   -1.03722513166427
H           1.14893733582855    3.10261368788051   -1.79254509023380
O          -2.12426626371272    0.93311422322714    1.08319401963997
H          -1.16981432469515    0.70885105832918    1.18842450772027
H          -2.28430050485574    1.67201832376131    1.67211046058408
O          -1.45678549107188    1.59795306555120   -1.46344144291337
H          -0.01382867750239    2.28603924817643   -1.12753742607049
H          -1.22440130059577    0.73192759498125   -1.82436113992684
H          -1.83008240179581    1.41022408749158   -0.57834529732325
O           1.85256351512080    0.18893182588193   -1.30518635703215
H           0.99106576114888   -0.27917838599767   -1.59335172279442
H           1.56790657417414    1.15810002749804   -1.08595534512918
H           2.13151457176056   -0.29925415777649   -0.38597214868136
N          -1.43360732034498   -1.86593628516135    0.16904490476621
H          -2.07746538794621   -1.14856726959040    0.48650636656095
H          -0.70957890439786   -1.94396324139781    0.88767472837647
H          -1.93717428506069   -2.74381338559996    0.13736710897111
H          -0.77507324525816   -1.33500061036549   -1.11082101177937
