    26
        -50.44612478  Gyration_radius:  2.48567707851 Dipole_moment: 2.143
 S          -1.49697737147189    1.16028945705964    1.18277900751851
O          -1.19180354909673    0.50721248358507   -0.06878880345623
O          -1.76401371950686    0.26719526219665    2.28191962915780
O          -0.46864522217688    2.16193778251385    1.50618229586921
O          -2.83647409753395    1.98485023290289    0.93875622490975
H          -3.08206105740104    2.25990644771289    1.81697802727317
O           2.09638696593065   -0.53908436881572    0.51050346323106
H           2.81231103939431   -0.55396904467742    1.14693183125504
O           0.61460552210826    1.35315416313924   -2.50081653059121
H           1.26838663815849    1.63388490240726   -3.14394646257729
O          -1.33834239897875   -1.91104852524090   -1.05797493855940
H          -2.05679234848828   -1.92809862797886   -1.69192994277590
H          -1.35236342435166   -1.00810123703934   -0.66196871941862
O           1.34239619524622    1.83354395536286   -0.11404412856986
H           0.94104773216061    1.72484132584177   -1.06041804354505
H           0.53961208840086    2.04205019155108    0.57302314694520
H           1.66481386528379    0.89839239658424    0.14339175145390
O           1.07971058668020   -1.18519707390028   -2.05889641804052
H           0.70048079621469    0.36124119087130   -2.42321890940375
H           1.60006313781020   -1.11283962338250   -1.24757274644435
H           0.22472671425431   -1.56895439498428   -1.77681690148806
N           0.09459192470375   -1.73181256952916    1.59997603847658
H           1.28999119460292   -1.01467624024268    0.96038654162150
H          -0.37703803288544   -2.23657351519856    0.85652631288943
H           0.25708533768495   -2.37947405735547    2.36114764723827
H          -0.56169850675546   -1.01867054338611    1.92789062702538
