    26
        -50.46070879  Gyration_radius:  2.43560060239 Dipole_moment: 1.977
 S           0.48083006368172    0.14717331930961    1.07328818756507
O           1.74148428476105    0.82724120750316    0.92218625153465
O           0.19567390652499   -0.13948319563070    2.57851939648144
O          -0.64351909888065    0.96222094240100    0.58203708555069
O           0.46446303057018   -1.15783310850364    0.41049889688042
O           1.95146193779654   -0.28691238556712   -1.66299216727328
H           1.57871737767975   -0.60011264852200   -0.81669988214229
H           2.63518481577227    0.33408827222330   -1.40036773697536
O          -2.36365431027527   -0.96153003542196    0.33860612032467
H          -1.86559742303876   -1.66027944698368    0.77374061377275
H          -1.83498680279953   -0.14062927004354    0.50987654121987
O           0.19325701981407   -2.63855701354483   -1.78550601107959
H           0.95390433572931   -2.30939038930888   -2.27616974810395
H           0.32658275551931   -2.31733147468063   -0.87120512966189
O          -0.39932659506255    0.97069593946258   -2.03151865595344
H           0.51541171975318    0.62022814856987   -2.10488493459845
H          -0.52070085240939    1.16213509946314   -1.07044101452136
O          -1.79648859907629   -1.09110759061773   -2.12806827970161
H          -2.17298975559162   -1.07838684902840   -1.16055187603909
H          -1.26327739967124   -0.16269857470648   -2.19957789400084
H          -1.05772644476970   -1.80682927647589   -2.10908608499659
N           0.58043629760620    2.41064149333766    2.97324151923974
H           0.27742279385506    0.76167170375508    2.99384713164194
H           1.27055380518624    2.25913725078897    2.24140533346647
H          -0.21724270061080    2.86560847417919    2.54742272360056
H           0.97012585795108    3.03023939799680    3.67239959378133
