    26
        -50.46365344  Gyration_radius:  2.41769222224 Dipole_moment: 9.107
 S          -0.93019295924425    1.22557217953966    1.25312795606158
O          -1.21252247365293    0.90718708634780   -0.14603409783433
O           0.45195007246424    0.78316369268271    1.58669997665869
O          -1.17532242215813    2.57605545207772    1.62510465686172
O          -1.86072087560338    0.27430918845725    2.09495492173527
H          -1.70358328880577   -0.62002095843785    1.74076600038327
O          -1.40738499942424   -2.20780870880829    1.00167037934524
H          -2.14583882604566   -2.77170388438469    1.23661095029006
O           1.29254205330076   -0.92695241257456   -1.99376345560199
H           1.99162468269976   -1.04143565044666   -2.63820742214964
O           1.38159760136699    2.97795116445870    0.36334017441199
H           0.66140603953526    3.58156781790334    0.56793603732586
H           1.21027527113292    2.21217678009425    0.93615784970623
O          -1.48862078054883   -1.36228885367911   -1.44071429662176
H          -1.52880757572295   -1.96667995275264    0.03388862822005
H          -1.55326203177706   -0.44523350454116   -1.09709343045032
H          -0.63133042312148   -1.39275281005564   -1.88648946874391
O           0.69241103760485    1.57069047472484   -1.84332030134540
H          -0.14444203325267    1.43354874936601   -1.35285248408462
H           1.19602604139912    2.15694246207372   -1.24616046877557
H           1.09367352192696    0.06560490218746   -1.97560724228761
N           1.18510359009146   -1.43719307826685    0.63149585081262
H           0.90301759574433   -0.44842209583184    1.04906033807778
H           1.30848065594874   -1.31803464873879   -0.40369297583795
H           2.03183719125733   -1.77832951465473    1.07237230237991
H           0.38208333488629   -2.04791385674077    0.83074962146179
