    26
        -50.46365339  Gyration_radius:  2.41771554782 Dipole_moment: 9.106
 S           1.48675501782615    0.86683692816505    0.98778071656016
O           0.09797564328887    1.34528084011494    1.23202267200231
O           1.50471808277207    0.03732679875618   -0.21651066509791
O           2.43871922517404    1.92311776608982    1.00619709667728
O           1.77749145307053   -0.11979653820369    2.18003354828655
H           1.14856571865000   -0.85552203379228    2.06536213738920
O           0.01350980759028   -2.18608192256331    1.75484274203270
H           0.33421357332021   -2.95000870612080    2.23653680622536
O          -1.65312047922031   -0.66538508136924   -1.82457943739081
H          -2.32305338358873   -0.58488874386077   -2.50416990736791
O           0.47140308613783    3.20092656272541   -0.66408930164432
H           1.41021602466578    3.36380735972375   -0.53350760319963
H           0.21753675015178    2.67863748624343    0.11482787750350
O           0.46151332902164   -2.30511144233191   -0.78923686034734
H           0.21479028543726   -2.35475639707026    0.78505986407387
H          -0.28866599732411   -2.01482341562532   -1.32544536780277
H           1.02510530651030   -1.50616986982252   -0.70402692975324
O           0.21306964873533    1.04621633844587   -2.28125191194130
H           0.85626010705687    0.64738373352301   -1.65921998721536
H          -0.94586663390773    0.02269894816703   -2.05132058249831
H           0.12856609078401    1.95912468645846   -1.94445660612406
N          -1.75431210343141   -0.32379793720659    0.82807648817151
H          -0.96708348727653    0.44046039703956    0.99436752604566
H          -1.40581135817579   -1.16985476687379    1.29742162574906
H          -2.63571056898711   -0.01471451619533    1.22218339434664
H          -1.82678512828695   -0.48090646441368   -0.20689735467625
