    26
        -50.45450032  Gyration_radius:  2.50675800653 Dipole_moment: 3.929
 S           1.59483859916697    1.50987778736980   -0.30785087637827
O           0.96601560375993    2.40855133893057   -1.27200247058909
O           1.09111100761776    1.70939885428570    1.03737414432959
O           1.54545890905247    0.12210057206365   -0.72447229764723
O           3.12854405553156    1.90995211480658   -0.29213883863319
H           3.09512227287869    2.86143290489997   -0.28172075289917
O          -1.30158396545138    1.43568069930133   -1.69250477362052
H          -0.41303510213692    1.95618398394618   -1.63835505617662
O          -1.28867506031500   -1.48455245485244    1.62350571938504
H          -1.62008341698084   -1.78750819585482    2.46957477553511
O          -1.72827968706612   -2.47853192117351   -0.85833360986946
H          -1.55842164491519   -2.19187906449721    0.06012873176338
H          -2.67632215394697   -2.43311854327420   -0.99151242646566
O          -0.34177743669020   -0.75435273708862   -2.36311426556881
H          -0.80198680510161   -1.48204528288149   -1.88495449550220
H          -0.98974942923063    0.47827296116279   -2.07518489544276
H           0.48996010928549   -0.58437709445713   -1.87169514481325
O          -1.46378776916634    1.10163703593768    0.79372824751812
H          -1.50823212903629    0.17104393666426    1.09036256318046
H          -0.55177204900949    1.40415212153911    1.00644872788986
H          -1.52444342639396    1.29266574011241   -0.68301493607233
N           1.27925901965977   -1.05672952004682    1.81665613362602
H           1.39035229112846   -0.19717432525233    2.34349968445324
H           1.98280639408177   -1.71529550824397    2.12653334240839
H          -0.28230117712669   -1.39314600566621    1.71915297757115
H           1.48698299040076   -0.80223941774112    0.84988980200830
