    26
        -50.45450034  Gyration_radius:  2.50678549922 Dipole_moment: 3.926
 S          -2.04573715015596    0.77823930952683    0.35770183428792
O          -1.15557893452026    1.92247948672900    0.39800906349905
O          -2.66049668438608    0.60271815076723   -0.95524470112095
O          -1.42107255230662   -0.43476422594445    0.84791952609473
O          -3.24312539605430    1.08774412226814    1.34915732194219
H          -3.76985909657545    1.70617910363000    0.85244165328640
O           2.50813457818164    0.25243100772946    0.38308160695976
H           3.32626812527092    0.69526842537157    0.61110663917167
O          -0.87103025110733   -0.40473005932301   -2.38675982984273
H          -1.70943470182254   -0.00508971712627   -1.93913784835491
O           2.09741779124668   -2.29750365577161   -0.43555934174328
H           2.29190713859820   -1.40580201801610   -0.08680027201243
H           2.60527146568670   -2.39605028417372   -1.24237592408861
O          -0.55105191635752   -2.30186690647190   -0.81661616706174
H           0.40734871225039   -2.41674164165311   -0.62108660290332
H          -0.92670301098803   -1.79452038412741   -0.06579431795467
H          -0.70841785346043   -1.30542894490341   -1.81865546065853
O           0.69422817191655    1.27781016654407   -1.36799626963661
H           1.41413981084961    0.90467649966826   -0.82170361969255
H          -0.13148405166991    0.26958351411206   -2.09065224871664
H           0.04840040133674    1.65911161064817   -0.73077120372690
N           0.72881142938328    0.74360585645565    2.22902292506803
H           1.86529120359245    0.41110668066817    1.15241042113458
H           0.82281911149727    0.57604383522614    3.22289895134044
H           0.42787396105882    1.70253335808855    2.09248540070742
H          -0.04392029147182    0.17296670008453    1.88291847403268
