    26
        -50.45450032  Gyration_radius:  2.50675562694 Dipole_moment: 3.927
 S          -1.90423183678942    0.64652744162067    0.93473276415547
O          -2.67086766972040    1.08001635890402   -0.23024103658856
O          -1.85577196795971   -0.79805417494819    1.05281269639874
O          -0.59128459033340    1.25821480583710    0.99757883741929
O          -2.70199000698293    1.18760408210641    2.19308535139564
H          -3.60542046627969    0.98778293446852    1.96836875866869
O           1.89848861859256   -1.69942544271191   -0.08815308862328
H           2.34502188894717   -2.53309573852105    0.06369293335030
O          -1.15576656946960    0.70628096868402   -2.18736473708574
H          -1.89156385435106    0.92527986765729   -1.49899662127497
O           2.77976248456349    0.52057411272851   -1.36693183724923
H           2.52932656901316   -0.28299599266368   -0.87071031728441
H           2.98276727394425    0.24170701572918   -2.26116638655971
O           0.63418760451442    2.10945599211551   -1.19040051538031
H           0.28376423513529    1.98053285310591   -0.28330283252979
H           1.49386570737506    1.63022208840527   -1.22584756467787
H          -0.35088931804578    1.35541687447989   -1.88511784747317
O          -0.59972503878191   -1.51618537340950   -1.15246462866831
H           0.32813273287359   -1.62478290569741   -0.86395571041742
H          -1.12052373069150   -1.38810184192470   -0.32732891965674
H          -0.88036602113899   -0.25912773314012   -1.90246141013624
N           0.80780529761109   -0.89743305949989    2.14399356648351
H           0.43278740299580    0.00275821113547    1.84138672334480
H           1.54571453318257   -1.38857417391344    0.81137838120644
H           1.27318237270906   -0.76140048873929    3.03263120021857
H          -0.00640564091073   -1.48319667181675    2.29478224096324
