    26
        -50.45449916  Gyration_radius:  2.50686913292 Dipole_moment: 3.883
 S           0.05108781110845    2.17849077027051   -0.41556270883778
O          -1.33314373248259    1.84087946907153   -0.14598219815628
O           0.73690615803952    2.68679217763602    0.76947978997876
O           0.77471309088296    1.09939959790735   -1.05923000991612
O           0.04394838605536    3.38139025797179   -1.44794038659837
H          -0.15710805215710    4.12888828747866   -0.89354181104869
O          -1.31548302054112   -2.18427610790903   -0.06516774654211
H          -2.08763800886168   -2.74843737319764   -0.11888048636827
O           1.22129784147556    0.66407376171374    2.16328168732696
H           1.10624992779045    1.58503424641372    1.71485172394995
O           1.29530540082569   -2.85346046752593    0.20828900308789
H           0.34816486500818   -2.66704801516606    0.05716589805602
H           1.35343722556311   -3.34256041571320    1.03048345778279
O           2.44334419805585   -0.43892487672434    0.30443161858292
H           1.98106127259866    0.10086467572308   -0.37184055767460
H           1.83557436288397    0.13323535900414    1.45456788304554
H           2.11876419150368   -1.36194106753348    0.19126534246154
O          -1.12432370269745   -0.07946899498206    1.64948911240134
H          -1.34101566203871    0.65556876869325    1.03194828489992
H          -1.19846529872954   -0.89832316055075    1.12034347910720
H           0.26023421153865    0.26584634664915    2.07852799927694
N          -1.43403379392063   -0.39326146108192   -1.96054463288795
H          -0.54197201199593    0.08007384931032   -1.80997517924197
H          -1.53467042815875   -0.56593803908972   -2.95286850009573
H          -1.36362272789841   -1.54662255979826   -0.85354516101470
H          -2.13861251388613    0.27972496146878   -1.67904591157725
