    26
        -50.45476409  Gyration_radius:  2.4735547273 Dipole_moment: 6.129
 S          -1.50623116118398    1.79088446806516    0.09360940311604
O          -0.07986396380611    1.75320439216116    0.51597753993636
O          -2.15027501921988    0.53815138525991    0.54652977437416
O          -2.18224338681486    2.97207280209369    0.49994397188140
O          -1.47724411958263    1.74555745852687   -1.46820911504602
H          -0.95607803534283    0.96057009626052   -1.74703059111000
O           0.54234406953334   -2.24823658042759    0.93831723671746
H           0.61171871825321   -3.18416581036985    1.12871879769578
O          -0.07800424335136   -0.32960200654787   -2.36522320934284
H           0.16006057433541   -0.16611331768572   -3.27864744093080
O           2.51659234932802    1.56198587588928    0.05133771723440
H           1.56643604218231    1.73163704251979    0.21645162096169
H           2.83359311158438    2.30385863458587   -0.46534534376265
O          -1.52230883322936   -1.78744268863875   -0.55406788603408
H          -0.25880365959463   -2.14191628915482    0.33477230509976
H          -1.91059488274419   -0.97020299696563   -0.16998293502176
H          -1.15880589872658   -1.50109954393902   -1.40486789874496
O           2.06207804045063   -0.87517186015419   -0.99846585987089
H           2.36011540512938   -0.02495942386701   -0.61385307842329
H           1.71995231615176   -1.39879014615634   -0.25811485679953
H           0.77737591600719   -0.52456686506429   -1.87692773589887
N          -0.35521720124726   -0.06742901133083    2.23328733202422
H           0.10856095581662   -0.95480835009912    1.94744362324545
H          -0.34267180352243    0.08644087290557    3.23442112357542
H           0.04194862614248    0.75361571634166    1.66149882046821
H          -1.32243391654892   -0.02347386420861    1.79842670465454
