    26
        -50.45450939  Gyration_radius:  2.45166882905 Dipole_moment: 5.291
 S          -1.84357609566262   -0.41159037756148    0.89011669763979
O          -1.17797347529952    0.65632807942733    0.16618601316721
O          -0.81130474607022   -1.48459057794020    1.27523995805805
O          -2.53397407236769   -0.02017233976517    2.06526587884515
O          -2.78771338854603   -1.12734401031926   -0.10020840116941
H          -2.57049134425923   -0.81634147800839   -1.03147304400144
O           2.40727816241404    0.38716095399787    0.94173383039589
H           3.21577711927539    0.25159701680779    1.43752008273241
O           0.60302931260288   -0.44852447690544   -2.66488920107740
H           1.08160373874599   -0.42692960154541   -3.49432299526189
O          -2.07313073495077   -0.08603308872690   -2.34489000023040
H          -1.98260285825258    0.78887826491902   -1.95290951120319
H          -1.16047117079784   -0.36818504061106   -2.55655962840547
O           1.15783809646473   -1.68574211546949   -0.29199691467602
H          -0.04750751333146   -1.61303292627484    0.59840609983585
H           0.93882755534715   -1.38818234304177   -1.19390164896989
H           1.71876545021351   -0.98559488585387    0.10252886188952
O           0.99933383414325    1.60711538682818   -1.11492399607383
H           1.69876735037371    1.36665057456701   -0.48883727060961
H           0.80888394555983    0.40280392054829   -2.18220977355400
H           0.17318248990270    1.45038223457281   -0.62489343211248
N           0.38443450473359    0.82941744594821    2.62250399213556
H           1.68750137425490    0.57735659252886    1.61080193802782
H           0.36569342364898    1.50994733990738    3.37311101487066
H          -0.33126235206181    1.09245147282313    1.95221819163330
H           0.07909140392907   -0.05782602090476    3.00638327809283
