    26
        -50.45450022  Gyration_radius:  2.50683067832 Dipole_moment: 3.924
 S          -2.15010878629277   -0.09788322089092    0.53500385552216
O          -2.70387874250174   -0.82296393232150   -0.60530417724638
O          -1.45525891599510   -0.97459975289931    1.45786000433129
O          -1.34904898306437    1.04246463101005    0.13515660034671
O          -3.40033840901202    0.49320798842354    1.30975482771130
H          -4.01044551782445   -0.23776818329533    1.30870075809341
O           2.42793056435710   -0.16752545378301    0.76002201451939
H           3.16181791354707   -0.40497616740952    1.32782650872370
O          -0.74949903298838   -1.28279606088241   -2.10035266974662
H          -1.64933309522010   -1.17083646596536   -1.60961436965259
O           2.44481583574731    1.11851835962771   -1.62445410275000
H           2.97636528157068    0.57525683135482   -2.20832836282091
H           2.48764488894470    0.70697686599200   -0.73930338696565
O          -0.16123297223507    1.12623104901122   -2.23024040111361
H          -0.45621325246111   -0.26316335781952   -2.28808055987807
H          -0.62708027507283    1.32519634021892   -1.39021038794689
H           0.79941822715426    1.24641804972305   -2.04923416697901
O           0.50755188613445   -1.93095415712691   -0.02201221241009
H           1.26713841919955   -1.35882078492978    0.20502943636525
H          -0.20286259759946   -1.69398451251742    0.61643579054333
H          -0.13287627019173   -1.63193341019552   -1.33431959401006
N           0.55840235346443    0.94660043633475    2.20178759537337
H           0.65889622424166    1.74891662513119    2.81085629777029
H           0.11234861118224    0.20082251640250    2.72487602973105
H          -0.10764280522119    1.18820615395760    1.46651776420214
H           1.75348948012538    0.31938958284168    1.34162687827183
