    26
        -50.45901935  Gyration_radius:  2.63376927503 Dipole_moment: 2.636
 S           1.56060645318586   -1.52257426921054    1.26413536469383
O           0.24420344591165   -1.69826602659475    1.85954473259907
O           1.95143320617916   -2.57445638160288    0.36150404604227
O           1.68060831833291   -0.18587962825088    0.67037206104767
O           2.59038691237356   -1.56025205752205    2.47780212299858
H           3.38011813561038   -1.91866515775472    2.08337460184651
O          -2.15547179007079   -0.90865568155118   -0.77552073824213
H          -2.54126668526944   -1.77375888400862   -0.63002804645864
O          -0.05083947612494    2.92419587955900   -1.38828459007662
H           0.67889390606976    3.34037975169745   -1.84843715244275
O           0.36542699012670    2.09218987406947    1.13625022772118
H           1.03473749273555    1.38998114209044    1.01201149955993
H           0.22336728374097    2.48645000376339    0.24838335136436
O          -0.80436201372941    0.79141580025138   -2.85498316810960
H          -0.18826206249200    0.09524779681094   -2.58135424481790
H          -1.66553664181983    0.51393881665028   -2.52845305555812
H          -0.35126634135292    2.18546746660902   -1.96168434686943
O           0.43339367110593   -1.19331147366568   -1.36681211983563
H           0.84717800748778   -2.05551739082817   -1.22169896803511
H          -1.20809741666967   -1.07035335859142   -1.00407831625183
H           0.91099334317676   -0.63808629167693   -0.70930733786875
N          -1.42067049198079    0.26863639212967    1.56310116402635
H          -1.89074906154321   -0.00411084188295    0.67717523137464
H          -0.75356333150793   -0.53366704159187    1.79422691887619
H          -0.78501528661116    1.13196111379042    1.41022646627946
H          -2.08624658686170    0.41769047731924    2.31253425613164
