    26
        -50.45450025  Gyration_radius:  2.50674282841 Dipole_moment: 3.922
 S          -1.56265234882739    1.44443125248899   -0.62348387868622
O          -1.41383671534805    1.59124106821846    0.81160362103766
O          -0.77587766861574    2.42708537075594   -1.36379661211637
O          -1.32746676434879    0.08701537689068   -1.07519563041140
O          -3.07610474960061    1.76631881904111   -0.96760429160588
H          -3.10450089183783    2.71642558447699   -0.91226677147421
O           1.58174553495167    1.59305421246681   -1.25681843997039
H           0.67615191907759    2.06510887315382   -1.39977396306835
O           0.94516813545084   -1.51036035240972    1.82394193043922
H           1.07951180136251   -1.84534749101126    2.71116548641692
O           2.03567308952888   -2.33617005962735   -0.51489187135526
H           2.98286555108127   -2.23562044169584   -0.40842626706600
H           1.62991917408886   -2.11206760270200    0.34515141876461
O           1.15634551446394    1.12475284343399    1.17607353289617
H           0.20309314728635    1.36937858814155    1.17152050285567
H           1.18491963726808    0.18201391705270    1.43374054798593
H           1.56149106019439    1.40319763223598   -0.23073613428803
O           0.95107163404422   -0.59957860054617   -2.23760180309020
H           1.43202716927786    0.64511696703507   -1.74593547241679
H           1.32593261239996   -1.32972669502233   -1.69327726364804
H           0.01613723702248   -0.49948838976574   -1.95814257887798
N          -1.61431714444927   -1.22105660328313    1.39958534827171
H          -1.59637722506062   -0.92191687325586    0.42347461644665
H          -2.33020344343907   -1.92997601300671    1.49797504768854
H          -0.05802786042707   -1.47418090590967    1.67364193692397
H          -1.90268839554741   -0.39965046716056    1.92007699834984
