    26
        -50.45901805  Gyration_radius:  2.63399517109 Dipole_moment: 2.665
 S          -2.21908656619293    1.17778109103636    0.18374323585191
O          -3.01817857270481    0.76044385853998   -0.93947938667413
O          -2.17229218615897    0.21877769144798    1.27797942883821
O          -0.86216339244677    1.58482725660640   -0.19815333739779
O          -2.92046503085863    2.47811730417815    0.77760622795549
H          -3.39298195708380    2.83132382161841    0.02954097124578
O           0.04510252155606   -2.45984373384091    0.15892991821202
H          -0.66789358833761   -3.07536428248239    0.33543525506570
O           3.08965563658519    0.60825554320742   -0.77180269759071
H           3.38648706269811    1.21947970463857   -1.44689544673059
O           1.44953977022373    1.55238847256193    1.14050830606705
H           2.11772065736264    1.26398307924542    0.48149468210962
H           0.65375708793691    1.79307902982939    0.62555589985332
O          -0.79973322079082   -0.61155978514750   -1.57406227123512
H          -0.31328422584842   -1.81119910661533   -0.49427972433411
H          -1.74692268273274   -0.55057579747456   -1.75995737090369
H          -0.63472195992976    0.25132431107573   -1.13034258652109
O           1.81716150194701   -1.40944581937665   -2.02845058197323
H           0.92195727764586   -1.06677752762226   -2.17039433894336
H           2.68053004577207   -0.14781272730287   -1.24677261904130
H           1.71986823301713   -2.12346668917371   -1.39130115001160
N           0.19087537608997   -0.51567901040196    2.05531829862318
H           0.34884769865013   -1.34451482465294    1.44853248406597
H           0.29548659041618   -0.74225694632753    3.03744550601520
H           0.83339213038886    0.30450409951155    1.75982511717535
H          -0.80265819717825   -0.18578901307984    1.83997621027879
