    26
        -50.45901798  Gyration_radius:  2.6341609082 Dipole_moment: 2.666
 S          -1.42918108057357    1.38981344765392    1.54065645185485
O          -2.79201521526755    1.25180822952577    1.09553059249508
O          -0.93961733333870    0.27211827033280    2.33453830691445
O          -0.49693966717137    1.68818618923509    0.44764169532338
O          -1.39695683963770    2.65447657336963    2.50735491574943
H          -2.13917393247116    3.17347078887012    2.21186481724829
O          -0.33798181371918   -2.44170397648125   -0.03989538698901
H          -0.91884418765121   -2.98880463195987    0.49080381920069
O           2.11642931704823    0.35113728762706   -2.42944304403843
H           2.07671619689802    1.02224342675858   -3.11173315010955
O           2.10441850775902    1.16767126090667    0.13399992268277
H           2.19705113239329    0.90997250270768   -0.80886759817540
H           1.22120648941361    1.58033727399956    0.21188388643364
O          -0.00227784181664   -1.27673695291345   -2.78988490194760
H           0.15462004032833   -2.06606430616702   -2.26300388946279
H          -0.72858895828355   -0.81185132996958   -2.34787307273222
H           1.37379979978348   -0.26628809055289   -2.60825344336477
O          -1.65943873337955   -0.25437655078077   -0.81549651794016
H          -2.50633805336878   -0.05252820527736   -0.39412704287756
H          -1.10788524012661    0.50154463908007   -0.51039765061973
H          -0.87679591940158   -1.65956340691459   -0.31163024540054
N           1.24360653130038   -0.85397719607576    1.50129094863348
H           0.86015804358652   -1.58921073070796    0.87481247646382
H           1.85228671984320   -1.24389400866174    2.21145760921187
H           1.73766894999008   -0.07990448514845    0.92714496422302
H           0.39407308786187   -0.37787596844817    1.94162552722750
