    26
        -50.45901788  Gyration_radius:  2.6340061376 Dipole_moment: 2.668
 S          -2.03198496134630    0.82225070944327    1.24161183359921
O          -3.15529220446986    0.04925955950920    0.77792246393433
O          -1.19869561029070    0.14295167045332    2.22314013911694
O          -1.20779405012735    1.34867356305321    0.14787400259968
O          -2.63629767867315    2.09082031241763    1.99031366955304
H          -3.49504536373956    2.19117373606110    1.59044161413128
O           0.73326054021812   -2.32727154426918    0.34824695799898
H           0.38775963432158   -2.99585409498973    0.94151551119019
O           2.00433051235172    0.90791715622692   -2.37866681726362
H           1.75508313912498    1.39813541970283   -3.16286315712007
O           1.38653746112464    1.97226400042808    0.01378522951472
H           0.40883235533610    1.96711521772017   -0.00737710236733
H           1.67501070960892    1.65730701281522   -0.87025425651033
O          -1.30328827364739   -1.05438504968319   -0.82026166803236
H          -0.05521367598444   -1.89975898295874   -0.06578263127766
H          -2.19403106924786   -1.18555247283020   -0.46682600967367
H          -1.15737070348440   -0.10093978096409   -0.62459180949774
O           0.82195027676665   -1.50939105370319   -2.54190246847021
H           1.24335391045693   -2.07478168328958   -1.88766555752535
H          -0.07376713160068   -1.35144494277178   -2.20754765260682
H           1.61491651017254    0.01188848848824   -2.47979246982111
N           1.32856672687105   -0.02166626930914    1.66264874584841
H           1.50396921515827    0.80651279559696    0.98723156497267
H           1.35892737822964   -0.92621463459103    1.15184989829661
H           1.96904717808971   -0.01067755729812    2.44784146584308
H           0.31723518477246    0.09166842474376    1.98910849356902
