    26
        -50.45901928  Gyration_radius:  2.63339150316 Dipole_moment: 2.635
 S           1.93054194382548   -0.38530572955069    1.57164072110483
O           0.72077850737524   -0.48589891053559    2.37450797056427
O           2.51967169882090   -1.65160838411955    1.22031212563072
O           1.70427395135808    0.48188380341476    0.40950660665951
O           2.99212860180035    0.37096049366258    2.48604765325667
H           3.82675964020481    0.02139635007051    2.18803253594745
O          -1.91316954006653   -1.55333458892589    0.08680745829240
H          -2.07540482770317   -2.28788327258399    0.68057752239067
O          -0.79782301051936    1.79566202097711   -2.57313301558761
H          -0.20320486879326    2.05527225895804   -3.27777339093520
O          -0.09033348851018    2.40629806061130   -0.05029112230830
H           0.71981761094547    1.87136230998411    0.06815856867313
H          -0.36007017336108    2.27915886524171   -0.98573378138557
O          -1.09473375684660   -0.87945908540242   -2.72925746875761
H          -0.94226050878825    0.82982709540108   -2.67798605754767
H          -0.32114131091501   -1.22388010000282   -2.25795963296943
H          -1.85187006062119   -1.11386157775373   -2.18432417559372
O           0.64047998619344   -1.60838412891079   -0.69467145998048
H           1.00249483203812   -0.72445487401674   -0.45725044012595
H           1.25293832994365   -2.19458142885469   -0.22897260557263
H          -0.96593411050204   -1.62844532763490   -0.18310331324054
N          -1.37371620723110    0.73534417199181    1.45237836878945
H          -1.80535051496076   -0.01952618379531    0.88304398818841
H          -2.02103016213228    1.10811223861698    2.13712526446185
H          -0.52599936996543    0.28946704080830    1.92640603564535
H          -0.96784318159336    1.51187886236268    0.81591165442281
