    26
        -50.45901653  Gyration_radius:  2.63448916086 Dipole_moment: 2.687
 S           1.10775870483851   -1.75195703185073    1.43261952283715
O           0.23465553314384   -0.99309538002752    2.31656611055009
O           0.57808794329895   -3.02817951839894    1.02596550925017
O           1.53652513755595   -0.92180387302112    0.30149969435537
O           2.42080769722300   -2.05950034975933    2.27914539785624
H           2.68500983218385   -2.91929034625012    1.96550087748747
O          -2.43735197877334    0.31103010808070    0.18662403923168
H          -3.06594016217255   -0.11097252061144    0.77411704012426
O           0.66064543848584    1.96967577146509   -2.48716495933347
H           1.23251243507474    1.76553749607250   -3.22793021286669
O           1.68215415662213    1.72775039499167   -0.00980778344530
H           1.85732873086854    0.76725598277814    0.04590608016051
H           1.37050602660749    1.89032047527850   -0.92651841947087
O          -0.74926210982326   -1.52922459095502   -0.76036774105196
H          -1.85029296535062   -0.41092188208994   -0.14500640753825
H           0.14879317032639   -1.19505857497299   -0.53571921479300
H          -0.73570050815674   -2.40184474031182   -0.34320931233309
O          -1.48474359520695    0.34648690514642   -2.66473334262772
H          -1.18533196072230   -0.47784267359361   -2.25250394674948
H          -2.15496327913310    0.70016048664233   -2.07230843819901
H          -0.14079958415954    1.41271970737968   -2.59738870115240
N          -0.35841765795021    1.41329882325532    1.55080594746781
H          -1.22243813337648    1.23874975129322    1.00021605368400
H           0.46096874987995    1.69277273980866    0.90021718262842
H          -0.50977712711427    2.09772462399129    2.28259060200569
H          -0.08073450417170    0.46620824565680    1.96088442192988
