    26
        -50.45901854  Gyration_radius:  2.63412446296 Dipole_moment: 2.656
 S          -1.34137178136109    1.27119515673285    1.71272604210613
O          -2.73251615019241    1.05807094153591    1.40727383648509
O          -0.70624917018008    0.17129000183556    2.42385752597006
O          -0.54774878787912    1.64654906228627    0.53704396036062
O          -1.28218904625999    2.51714898810168    2.70220253253060
H          -2.07424219764983    3.00216077762469    2.48996429800506
O          -0.19517203610765   -2.45764994120698   -0.06175144238829
H          -0.68369151082440   -3.04818726874747    0.51358218164392
O           1.82632764988189    0.52409845644087   -2.62677871432736
H           1.67485849238754    1.20322421744637   -3.28505638930246
O           2.03326648505565    1.29276500848996   -0.05677446221584
H           1.14018882039581    1.64887399276311    0.12172331842072
H           2.04219423740178    1.05808933648174   -1.01008722086334
O          -1.71739730905920   -0.34216856316322   -0.64502850621308
H          -1.18313232144491    0.44104597048010   -0.38068060710618
H          -0.80479447464550   -1.70536316447621   -0.25750874470401
H          -2.52635258053790   -0.20014765268288   -0.13416217076564
O          -0.21708404846363   -1.22581665169348   -2.80307486343985
H          -0.91961519766780   -0.81439314052041   -2.27751066520070
H           1.10747338593895   -0.13517586118700   -2.74200261557431
H           0.04071054710079   -2.01306869961035   -2.31417643944427
N           1.44175576536603   -0.80194235764931    1.34387572643002
H           0.61572758587094   -0.38705755600056    1.88058351701695
H           1.03947363290768   -1.54868221733215    0.74330329807193
H           1.82609982468808    0.01075600959040    0.74039088564502
H           2.14348016526866   -1.16561484554082    1.97806573883670
