    26
        -50.45901940  Gyration_radius:  2.63356464723 Dipole_moment: 2.635
 S          -2.37813729358881    0.83286989666273   -0.02791386580435
O          -2.84283325842590    0.75034629078774   -1.38845548365242
O          -2.39383230554833   -0.43196897640994    0.69187406255062
O          -1.06271107948178    1.47295138045692    0.08875244713488
O          -3.39956619039128    1.77966987143742    0.74363453220995
H          -3.72824175115477    2.35251589125942    0.05704466997881
O           0.42675284080234   -2.35277813388283   -0.59682359338752
H          -0.19532656254825   -3.05260891498652   -0.80095536727267
O           3.03003916983180    1.11130340240141    0.25151380583433
H           3.35748387216997    1.93807048448744   -0.10442338139996
O           0.89503418765664    1.20253997282255    1.88609042628248
H           1.72344959162148    1.21576665520316    1.35932316043699
H           0.19336427455846    1.52776533593763    1.28745134844408
O          -0.34040304737896   -0.11189967563627   -1.83138334364126
H          -0.42037054351657    0.56129396227906   -1.11785186743484
H           0.10779289835695   -1.55646675785814   -1.08669467295077
H          -1.22485309975174   -0.07955491335924   -2.22161736274137
O           2.40886113766147   -0.46691478933072   -1.84379412069793
H           2.86266720862421    0.52739073242154   -0.52040495166188
H           2.30598730016736   -1.36085589585897   -1.50392290679392
H           1.51657187458639   -0.18062257852765   -2.09076555925124
N          -0.15368724006682   -1.16096524403687    1.77750415319589
H          -1.12248885644005   -0.87222350411820    1.43080271277892
H           0.26545928632256   -1.71725043958240    1.00607783281824
H           0.38629400844602   -0.23293310665502    1.91885844386378
H          -0.21730643252013   -1.69544094592688    2.63607891118100
