    26
        -50.46547922  Gyration_radius:  2.52143128792 Dipole_moment: 1.499
 S           0.37124596905346    0.74309084799891   -1.90027312786007
O           1.45157584447797    0.78266731898083   -0.94089727548901
O           0.25975359354103   -0.56186929775627   -2.54187785881968
O          -0.89827263675496    1.19548002034524   -1.35327226190359
O           0.74173101168827    1.78457307755975   -3.03732032682032
H           1.66154193195731    1.58753958813276   -3.17864665417161
O           1.56820518493638   -2.66803646989007    0.87230984955874
H           2.41338006846357   -2.78877580060133    0.43677129571078
O          -0.77952055442132    0.98097901540028    2.40091028269012
H          -0.82501474150976    1.32851036049537    3.29230767220201
O          -2.06649144247645   -0.44219545543570    0.41064828360709
H          -1.72063384752077   -0.08107362111902    1.24310084134280
H          -1.81025320499094    0.20938053392278   -0.27371483841769
O          -0.67206996398863    2.93172036755224    0.60345010797665
H          -0.64397085579404    2.33419213347261   -0.17831196304594
H          -1.43318986058743    3.49921077446682    0.46753705313197
H          -0.70167836511674    1.75882734789643    1.79494652381358
O           1.60136278286771   -0.16538968672640    1.55801165425206
H           1.59971426281907   -1.74309393891519    1.25379600300533
H           1.64755221177128    0.24761934112569    0.67317925467898
H           0.78382934661704    0.17723368917541    1.95564999633865
N          -0.51358638198471   -2.24784529741684   -0.71339934366007
H          -0.97095487710993   -3.07953796793817   -1.07075630792320
H          -0.17440172855361   -1.63451927089169   -1.51374511752435
H          -1.19848066477187   -1.64803665300343   -0.16505398709282
H           0.30862694740507   -2.50065094683090   -0.09534971557842
