    26
        -50.46547957  Gyration_radius:  2.52125895068 Dipole_moment: 1.494
 S           1.34304574918754   -1.39926924920711    0.73320781365551
O           1.45997181059656   -0.03859561751205    1.20674497566423
O           0.32592960288452   -2.14531637241610    1.46525446767012
O           1.16091385357911   -1.49084483176871   -0.70684924659094
O           2.73299107985706   -2.10118387505175    1.03341207407718
H           2.90477253304709   -1.80463977370372    1.92077944667718
O          -0.08611803009078    1.80936278011128   -2.01389397819681
H          -0.04969792101003    2.59768015648796   -2.55678764694024
O          -2.10940108207078    1.24773326239331    2.08017585420992
H          -1.80317762959603    1.26492419518119    2.98825691095975
O          -1.21424539052391   -0.68692574777917   -1.64046670064742
H          -1.01652790538340    0.24040874042858   -1.85021373674807
H          -0.34489345916464   -1.09248654400073   -1.44476479993598
O           2.22103734935691    0.49656488613174   -2.05623679774592
H           1.92352787138388   -0.23037434621514   -1.46293162099243
H           2.51197078628023    0.06814548272008   -2.86358900713382
H           0.81328811332754    1.39914705671422   -2.04636676596743
O          -0.06155400934089    2.11429735500258    0.74269306979527
H           0.58079756497200    1.40809541113327    0.95331336996776
H          -0.14807102278567    2.09852175541131   -0.22485970782390
H          -1.38341844682431    1.68877148395220    1.55037081121939
N          -1.97595350283577   -1.09475480393277    0.84740585054448
H          -1.83083099620155   -0.88849111481949   -0.18507420657008
H          -2.10322012993322   -0.18522674263142    1.37529356927612
H          -2.77148358919741   -1.70918634722092    0.98220563724557
H          -1.07965320949973   -1.56635719940189    1.17292036432818
