    26
        -50.46858853  Gyration_radius:  2.44348327397 Dipole_moment: 4.171
 S           0.49559852897718   -0.38908669124277   -0.93915735827380
O           0.39409174312514   -1.77883734618982   -1.30757149795758
O          -0.49243719045286   -0.16107209013024    0.28270070078188
O           1.81412904023065   -0.05577459466446   -0.39158705348883
O           0.06734604599041    0.55242973651807   -1.95805333704157
O          -2.00458487926370   -2.52398473680847   -2.13887591360972
H          -2.15567182562408   -3.40801944498014   -1.80115802972031
H          -1.06664397126349   -2.31051639874413   -1.93955848526466
O           1.50775596948839   -1.86637967955953    1.54117961431785
H           1.77883310910919   -1.27932515085080    0.81167039330234
H           0.99355241142192   -2.55568983377167    1.11535411744423
O           0.23704805757379    0.05726590401057    2.95126825851719
H          -0.60745576003772   -0.02085548682918    2.49570107909572
H           0.75585341844120   -0.71279227005958    2.62551882979051
O          -0.11353916645384    2.80723522263159   -0.61799826272126
H          -0.06374313345278    1.97941119475130   -1.15299945331086
H          -0.08488135383344    3.52988892408596   -1.24671091149533
O          -2.51785451673346   -0.03915662682984   -1.28257856064246
H          -1.38840355836300   -0.10474435962517   -0.16313730496382
H          -1.91163251782879    0.39136254042752   -1.90204724179424
H          -2.59097237595282   -0.96002568379551   -1.60805045931579
N           1.40291993738413    1.80303754696461    1.34984503116860
H           2.17505030209119    2.34386100153211    1.72370893970225
H           1.72910278344298    1.07587493729554    0.63900299380851
H           0.90876021272408    1.23338016334267    2.10380778798546
H           0.73777867925815    2.39251322251753    0.80972612368365
