    26
        -50.46547949  Gyration_radius:  2.52124283181 Dipole_moment: 1.496
 S           1.13931050776428   -0.81831772649212    1.52713220407203
O          -0.01973129431473   -1.21825672721337    2.31695067682693
O           1.16661214183949   -1.47296578728309    0.23874368347253
O           1.27052397081170    0.62746279071123    1.43797770722817
O           2.42419599147346   -1.31595823799618    2.31199735254069
H           2.40410223441784   -2.24983671427608    2.13229296566171
O          -2.49383896228034   -1.72560070759315   -1.06583450168374
H          -2.39043984624775   -2.67281597268216   -0.96209159085128
O           0.36770680041085    1.74185985122296   -2.04143354759611
H           0.52791755237681    2.16400535416229   -2.88612703545697
O          -0.83999148495463    1.93288162934789    0.43771543708429
H          -0.59216623100537    1.97746775961366   -0.50017764352491
H          -0.03755574496790    1.61011342249144    0.89649029712131
O          -0.19675169888400   -0.97381432083725   -2.01004860236551
H           0.37776480712063   -1.22443063806683   -1.25986785976146
H          -1.66593040975181   -1.42198057546335   -1.53984396976213
H          -0.07367315235064   -0.01589978916731   -2.11511825274026
O           2.61595143359903    1.45863253025005   -0.65823585276412
H           2.19042673827083    1.03915827222834    0.12401252074031
H           1.24863692899162    1.63407110251656   -1.60485383964785
H           3.07083779821236    2.23273231546450   -0.32101326094427
N          -2.12395942411783   -0.26448919202854    1.11438560476280
H          -2.35191584119189   -0.86363723200804    0.27112043952078
H          -2.93640534487056   -0.14909207728363    1.71035652114352
H          -1.32368159716169   -0.71058396576237    1.65503763687290
H          -1.75794586320016    0.67929463614851    0.79043289004987
