    26
        -50.46547961  Gyration_radius:  2.52122480885 Dipole_moment: 1.492
 S          -0.30870306328670   -1.32800205148638    1.56185297009801
O          -0.79649713157431   -1.69980838411727    0.25306475676852
O           1.10896310361457   -1.63139468541147    1.72111568763401
O          -0.61954361499667    0.04696727983567    1.91990835053184
O          -1.09142940564748   -2.22806144819063    2.60683008323100
H          -1.04552221876686   -3.08239828905020    2.19108584386433
O           1.99880331593774   -0.91998360899175   -2.34458361905436
H           2.04993382677860   -1.86906813057429   -2.46803640002576
O          -1.36639389036718    2.00475743358997   -1.20502687858787
H          -1.90708179104401    2.54412472317844   -1.78319606132354
O           0.73251543558077    1.93603856666062    0.59280300613871
H           0.11487479722516    2.11749596695144   -0.13421202178225
H           0.23203939547327    1.36804641895452    1.21376622628299
O          -0.54905702394803   -0.48336211047820   -2.11846854360369
H          -0.73057322221538   -0.99446556252900   -1.30515011985392
H          -0.80724947253938    0.42914971025343   -1.90758436723621
H           1.02164522463244   -0.70421468309327   -2.37318974534947
O          -2.79473741107130    0.98678173815983    0.78819768372738
H          -1.97023193767995    1.63080256642779   -0.51675816870516
H          -2.04043585299117    0.51539114268534    1.20965140633069
H          -3.14941322540339    1.56481070133901    1.46643203071895
N           2.40912843949330   -0.03946231512742    0.12149908715669
H           2.33093706101361   -0.39496434666191   -0.87326318306108
H           1.84256726546875    0.85382814014476    0.22468632571929
H           1.95771822582511   -0.74147256118114    0.78128198883541
H           3.37774316049341    0.11846376872674    0.37729366154647
