    26
        -50.46547845  Gyration_radius:  2.52137062277 Dipole_moment: 1.484
 S          -1.36725581364936    1.47793957227299   -0.49889409804705
O          -1.84846747622050    0.77086397392049   -1.68011863200625
O          -1.60547794254474    0.72886999420274    0.71410031423492
O           0.01418453241779    1.90963068832813   -0.64382272404598
O          -2.22102531376234    2.80891640805379   -0.37912570071026
H          -3.04129704795399    2.47374670325988   -0.03324986856656
O           2.21783864215432   -0.21876395465755    1.53737514537830
H           2.84708033588488   -0.38092311572683    2.24112995238662
O          -1.02445463323080   -3.04701912790326   -0.09196019582556
H          -1.96478625038163   -3.15033800699231    0.06180386497429
O           1.79776510932102   -0.00946825461613   -1.18726064809219
H           1.26060131507770    0.80199759578253   -1.08013562329264
H           2.09264113382465   -0.23538964300960   -0.29009131087859
O           1.27739049819802    2.26204259718457    1.63020774006862
H           0.69370855359795    2.16755739476482    0.84309925509617
H           1.88417236445402    0.70419180075732    1.66019741513273
H           1.85821819113002    2.99971179105825    1.43438738764426
O          -0.29862453528583   -1.36644005753936    1.74723771770049
H           0.62555998228807   -1.06918543277381    1.70998247234920
H          -0.82813413068689   -0.58882647536874    1.48139699360936
H          -0.69227850674191   -2.49651740222492    0.67535623918728
N          -0.33687686151821   -1.32758155538608   -1.98812227231256
H          -1.01495546601496   -0.51030565409355   -1.92350993844169
H          -0.62391673531257   -2.07389237957082   -1.29342248716185
H          -0.31305841301728   -1.69735431795451   -2.93218470730301
H           0.61144846797103   -0.93346314177860   -1.71437630108144
