    26
        -50.45437227  Gyration_radius:  2.50809782183 Dipole_moment: 3.467
 S          -0.73142120755507    0.77999031501958    1.97044565152978
O           0.62614734336418    0.40692571468804    1.58917203849670
O          -1.00747240778833    2.17289602682989    1.62658817329488
O          -1.71758048685216   -0.15055374426024    1.47859616320361
O          -0.79434884270031    0.72152373746413    3.55247276142747
H          -0.44598688224612    1.57162224973314    3.80251360865197
O          -0.04620371976015   -1.91820805476901   -1.68887280188287
H          -0.34618959226525   -2.73168612039883   -2.09594413450483
O          -0.55268577650656    2.36267954030239   -0.82865165832386
H          -0.79655305437481    2.44660047888764    0.16962106730766
O           2.06570396867489   -0.34608582082162   -2.31263940662183
H           1.92176433783892   -0.04565689234229   -3.21131192316799
H           1.34631265455425   -0.97473368250813   -2.10631327561479
O          -1.71648920013802    0.15679108660314   -1.14793262917882
H          -1.87247176464891   -0.01412790546977   -0.19270983154906
H          -1.05778348399233    1.49274650738013   -1.10702882285683
H          -1.13974100907055   -0.57199528344534   -1.45298084813690
O           1.77493459073453    1.57837500647747   -0.47740089854676
H           1.53738921865438    1.12310577592933    0.36090234691177
H           2.00483094077842    0.87170041979369   -1.12369319199578
H           0.49412293622427    2.10823539973401   -0.78427406489169
N           0.11211311672137   -2.27252496261504    0.89040784324986
H           0.64443310864733   -2.99406842141583    1.36036909228365
H           0.06065844590968   -2.10973046247437   -0.69634411314056
H          -0.84013767982982   -2.29814398895172    1.23853510790322
H           0.47665443562558   -1.36567692936565    1.18647374614347
