    26
        -50.45437217  Gyration_radius:  2.50794799938 Dipole_moment: 3.471
 S           1.63456818357801   -1.25467675295995    0.88245154027391
O           1.97223640246948   -2.10414997710139   -0.25711901925289
O           1.67125811097956    0.15564612467687    0.51164543158557
O           0.40420714058121   -1.61983006274458    1.54052840164027
O           2.80023503477072   -1.48162845314621    1.93134489175282
H           3.56048733933720   -1.60013872415068    1.37054841481725
O          -2.29488969643844    1.07062978582310    0.34680313837553
H          -3.13730643051733    1.24098994073479    0.76961172559431
O           0.35114775074898   -1.48343175071727   -2.06252553560427
H           1.06962879357682   -1.86268695434120   -1.42812187166528
O          -1.16708640705047    2.26113695006905   -1.80488360520959
H          -1.60325041732859    1.89985094515485   -1.00824881860320
H          -1.76218292160679    2.10776273465583   -2.54035424986246
O          -1.46310969785343   -1.42931011300687   -0.32231608759894
H          -0.49950465764993   -1.48329914433553   -1.45786778862465
H          -0.87375896202535   -1.60716840595950    0.44382752285622
H          -1.84775793429385   -0.54545074252566   -0.15630648612076
O           1.11495524019789    0.87499295943857   -1.96490543000909
H           1.43842102312456    0.77358619782228   -1.04205553124209
H           0.65725860739185   -0.45380767899575   -2.16040889671806
H           0.34530668144286    1.48827158079111   -1.92543551097688
N          -0.42594322571438    1.04748877020538    2.16610530212367
H          -1.58611920610037    1.12776153322824    1.07316371890383
H          -0.53595764964380    0.18218831226579    2.68360234482482
H           0.40305124383757    0.90471224330884    1.58705586428704
H          -0.22589434581397    1.79056070180381    2.82386053442878
