    26
        -50.45437233  Gyration_radius:  2.50802035388 Dipole_moment: 3.470
 S           1.95733567139016    0.16384620666363    1.08063631741232
O           2.89440879448354    0.05726247158310   -0.03509500268247
O           0.96706338700466    1.20590564508436    0.83350825356025
O           1.35480020292713   -1.09034533018146    1.46052220269306
O           2.82960777138611    0.64535565952847    2.31257089033998
H           3.47047839409493    1.21560677803195    1.89951720970288
O          -2.35332829303172   -0.99746815559392   -0.01924990654067
H          -3.07419283229961   -1.56960109054845    0.24620199668100
O           1.48228701313231   -0.34441635142535   -2.06414634717467
H           2.19733867760652   -0.20455427601747   -1.33496629724386
O          -2.32127916181218    1.02644594893909   -1.81437193182085
H          -2.40430433655395    0.31675519043017   -1.14744700887218
H          -2.55519006135747    0.64083160547093   -2.66004161643493
O           0.10029992197315   -1.94538546348786   -0.70451189382964
H           0.57013628403733   -1.78841099837501    0.14439650669681
H          -0.82272358431335   -1.66165575516287   -0.54866752869433
H           0.86820468752282   -1.07134653403183   -1.63500826247002
O           0.24434960192641    1.76394839883838   -1.64197696001046
H           0.46858274240409    1.75084014336271   -0.68485287164946
H           0.93378126039500    0.58301596364928   -2.02275136642601
H          -0.72733770406053    1.61550067628881   -1.70316221253948
N          -1.21831040562782   -0.02224127046166    2.11693480310550
H          -1.97415447160838   -0.59057870854444    0.83167455225576
H          -0.68985352786392   -0.77987087007102    2.53571740173362
H          -0.51560704946200    0.58950204159545    1.69873934356374
H          -1.68239298230037    0.49105807443714    2.85582971865174
