    26
        -50.45476403  Gyration_radius:  2.47359196457 Dipole_moment: 6.129
 S           0.46538400803695    1.75154878181223    1.48338637151908
O           1.39859302606647    0.73994025229381    0.91762680901421
O          -0.78452923180028    1.05758567201964    1.86472021059138
O           1.04070859259711    2.52724446076152    2.52489180537619
O           0.11086491237630    2.70000173743933    0.29305461307655
H          -0.22930512027581    2.15344659144066   -0.44930202622602
O          -1.17974146145816   -2.18472300949290   -0.25631257030683
H          -1.80947387529415   -2.88815797910658   -0.41646300085220
O          -0.80942817018978    1.34498066029941   -1.80117604740537
H          -0.73656442504426    1.89866594103618   -2.57955713439589
O           2.73773888096285   -0.39362484768158   -1.06144282211587
H           2.32284967366210    0.08265625191807   -0.31321622855454
H           3.38524009674620    0.20679611703650   -1.43303701270221
O          -2.41132867895059    0.07572437019479    0.01982744188057
H          -1.94255051617342    0.50729307832513    0.76827804157908
H          -2.15503645592470    0.59814618554410   -0.75436214122545
H          -1.71812201260196   -1.33453823026442   -0.18744744988618
O           0.37608290016854   -0.92387975107680   -2.24028258602510
H           1.28907025068014   -0.82106876835503   -1.90042125932305
H          -0.07181548113948   -1.52601898417786   -1.62696550854615
H          -0.33045862872758    0.48838854633909   -2.01318534462935
N           0.21432409186142   -1.27387936557159    1.85686854128020
H           0.95888161347232   -0.63246527252879    1.41756317453303
H          -0.24054003721483   -1.84717379277328    1.11614104820050
H           0.55565169404030   -1.82405138336514    2.63590548709578
H          -0.43649564587758   -0.48283723207024    2.13490758804833
