    26
        -50.46407440  Gyration_radius:  2.47293722304 Dipole_moment: 3.308
 S          -1.14839282814496   -0.40589235703520   -0.09207019245422
O           0.06135389778041   -1.22637100703233   -0.24519830150068
O          -2.29430250748512   -1.18368335794699    0.29564162711901
O          -0.82555982776850    0.63167099314503    1.05281354364560
O          -1.33290274048277    0.45539320009982   -1.25236429348212
O          -0.92290138719363   -2.85743105221992    1.79438956886672
H          -1.59115988723247   -2.34887799973380    1.28247903156687
H          -0.26099993484232   -3.09914064116924    1.13993486897819
O           2.01872772191551    0.05002221457314    1.03782798634377
H           1.42746498388945   -0.59953887472046    0.60501901737702
H           1.75324305374803    0.04814395407329    1.96227085715376
O           1.27342010136451   -0.71520556476664   -2.57560309162285
H           0.56569697502357   -0.69175424027048   -3.22286741625445
H           0.86982579136484   -1.08199712721452   -1.76004301372170
O          -0.90472639314192    3.08666981331565   -2.08487149583956
H          -1.64671704633652    3.66755540124376   -2.25642423283130
H          -1.28383514652705    2.21436129573087   -1.89679649565341
O           0.03518421532931   -0.79146144353776    3.07484629287390
H          -0.46865444963121   -0.68155851253844    3.88342878049827
H          -0.25872304379869   -1.66210676168245    2.68543945549371
H          -0.53675834428855    0.14057827033394    1.86144761505902
N           1.12061490332731    1.44529401906180   -1.05095418131004
H           1.17788485087485    2.43255641391918   -1.29201816516602
H           0.10307732954759    1.17274589279588   -1.00432459225399
H           1.49429034338773    0.81421790946880   -1.79881156562955
H           1.57484936931820    1.18580953211106   -0.14319162725210
