    26
        -50.45437226  Gyration_radius:  2.50794963953 Dipole_moment: 3.469
 S           0.23973043981848    2.21526968875459    0.24505992717578
O          -0.07858314287702    1.21857941948374    1.26143615871832
O           1.68492829161007    2.35318092512095    0.08207676500442
O          -0.46971567411142    1.98893651402772   -0.99018379057559
O          -0.25162394108700    3.61313749110984    0.80630925813151
H           0.47636930036472    3.87935673691207    1.35918276604213
O          -1.37269558066004   -1.90102101205819   -1.01873411115246
H          -2.02683402272192   -2.31738397012027   -1.58104100032573
O           2.52421124406168    0.05437457858402   -0.45050729279768
H           2.34089328158671    1.05103022527594   -0.26170466015621
O           0.20655651306445   -2.98117960508071    0.89398512498045
H           0.75027095790313   -3.63748753781878    0.45555644836009
H          -0.41914815733992   -2.63994131773242    0.22510649146247
O           1.56125638644822   -0.80799878751123    1.66711290734097
H           2.21672522551396   -0.41037026646286    0.47282538573719
H           0.90409750221427   -0.07809492276743    1.71194317294621
H           1.05022807524100   -1.63426760623571    1.50548551542989
O           0.55139235086481   -0.23984145443473   -1.98150797199933
H           0.13086224248209    0.62319629573322   -1.77111096363385
H           1.79059069918562   -0.17548048524629   -1.15643866461467
H          -0.09187905664628   -0.91997422734195   -1.69800956512678
N          -2.43252753718589    0.20792922319548    0.09119550599255
H          -3.28078134954489    0.22709598196338    0.64337185385559
H          -2.50702248558700    0.91138660440892   -0.63560268617326
H          -1.66154687857794    0.52112767716842    0.68313139428634
H          -1.83575471401787   -1.12156015893787   -0.55893795891663
