    26
        -50.45476409  Gyration_radius:  2.47354543162 Dipole_moment: 6.129
 S           1.77287419632805    1.52530491140765    0.12225006871510
O           2.10930288317776    0.27045481118290    0.83036470672733
O           0.31687147701645    1.77668053460924    0.29896707851163
O           2.58330776903299    2.63349823945589    0.48613396334161
O           1.96333595838168    1.24849079687176   -1.40394752154934
H           1.35609069743362    0.52192983166698   -1.66649446048161
O          -1.06685502163471   -1.96624513243235    1.10663684763133
H          -1.32978268451950   -2.83975497014459    1.39797691758863
O           0.36037232363729   -0.69309573889067   -2.25800417188570
H           0.29070322864867   -0.63488953968723   -3.21168052567574
O          -2.17622097026271    1.92730316369708   -0.57031767356438
H          -1.24529720743741    1.96869564950419   -0.26945266428680
H          -2.27656505951494    2.62253249659887   -1.22179175602007
O          -2.01827981068614   -0.68180779031033   -1.21523533464912
H          -1.88674796090983   -1.13405031475340   -0.36817113823776
H          -2.21177021574831    0.25309624478820   -0.99582807588160
H          -0.57779434404415   -0.67480893485330   -1.90075843890156
O           1.24147382832825   -2.06752713695661   -0.06116696196122
H          -0.18058598364439   -2.07998908799466    0.63866968847830
H           1.06265410013904   -1.86019370418661   -0.99015674200488
H           1.70994941017659   -1.27267970278140    0.27785137470880
N           0.00918463413429    0.21754409281682    2.25192290366257
H          -0.55957528043967   -0.61897738687744    2.00497123864433
H          -0.14714509468351    0.99431016690494    1.52323795478732
H          -0.12083837605398    0.52165693652441    3.20937333551333
H           1.02133751314560    0.04252156384185    1.98464938678963
