    26
        -50.46407475  Gyration_radius:  2.47256391967 Dipole_moment: 3.322
 S           0.09838599147335    0.86855678081128   -0.85171052347093
O          -0.12324008735958    2.16987935251173   -1.42247406521672
O           0.86275531678201   -0.06010384403795   -1.67333214052646
O           0.65823523406772    0.93862447394345    0.50548226493288
O          -1.29035629925047    0.13151909051191   -0.70898237180216
O           0.79439935415059   -2.68582473794848   -2.61802381076266
H           0.68029272390400   -2.86039875350850   -3.55286580333342
H           0.87459469689672   -1.72338594088718   -2.53213131358187
O           2.78615453239695   -0.66714306919329    0.72948155285725
H           3.29300927262678   -0.51608697003490   -0.07098538043221
H           2.10987531604635    0.04340202176196    0.74820876161008
O          -0.76117576029660   -0.74434393135790    2.00817419906375
H          -1.65142809090232   -0.38033674923351    2.01568229978571
H          -0.19861718836271   -0.02589631936858    1.65275072312279
O          -0.78888022696567    3.29803896868281    0.86063100196044
H          -0.56175532213773    3.06188352113193   -0.06666375523611
H          -0.02209499714541    3.01632648496749    1.36816757062732
O          -2.59010625767457    1.42890195160193    1.15700599788070
H          -1.95911951147861    2.20206801784459    1.16629255025582
H          -3.43711586320901    1.78395672795685    0.88086455719672
H          -1.84351491353817    0.61178668290888   -0.04430015048518
N           0.59802649511992   -2.01877446111352    0.09978018751776
H           1.55628162920281   -1.85541468645970    0.49115050848503
H          -0.10507738815368   -1.78676412557417    0.84132133529667
H           0.53211194488393   -1.29225132293042   -0.66076391067972
H           0.48835936893935   -2.93821918297425   -0.32276028506908
