    26
        -50.45476408  Gyration_radius:  2.4735455187 Dipole_moment: 6.130
 S           2.05134656319301    0.81710096678742    0.78019757123157
O           2.23773807677240    0.01869703716936   -0.45148869060163
O           0.93660662135029    0.21032706305317    1.55706967959081
O           3.23648855367814    0.99538083657123    1.54242237885653
O           1.52959309831073    2.22114924137161    0.33447432855400
H           0.67735833733377    2.10025174456735   -0.13951276867070
O          -1.09004645120898   -1.79403067701126   -1.35018748603533
H          -1.47057931913446   -2.33538637135952   -2.04241322748424
O          -0.79079997353931    2.04424275278359   -0.95110773751956
H          -1.20950520740179    2.90590082370056   -0.94617537834564
O          -1.51996560913471    0.18488505077848    2.53605704118971
H          -0.58211387509247    0.23676200122973    2.25929022670805
H          -1.65090494165673    0.89384692167628    3.16698750085781
O          -2.43660597727200    0.27793597286669    0.00636110525783
H          -2.12714929001123   -0.54819223971176   -0.39499732524878
H          -2.23131561699646    0.20836995555503    0.96167780635555
H          -1.45704141354896    1.39994293497429   -0.56488889281700
O           0.41793892698201    0.04372491179178   -2.37556591911929
H          -0.03992855820580    0.87692359800060   -2.19084236757555
H           1.20103151420654    0.06170153635113   -1.78173382324719
H          -0.54173921799741   -1.08637950954148   -1.81493448645210
N           0.96298206661287   -2.01258511906223    0.37487045159476
H           0.77793540322506   -1.23465758965656    1.09558597561166
H           0.11660235589237   -2.15808014568172   -0.21394348894700
H           1.68079060870416   -1.45854875807554   -0.17678852918616
H           1.32128330493845   -2.86928296912701    0.77958606544097
