    26
        -50.46407459  Gyration_radius:  2.47269160105 Dipole_moment: 3.321
 S           1.17340066686456   -0.33607920735953   -0.00454138400682
O           2.47543143194332   -0.54330115476276    0.57003834127051
O           1.04469621403578   -0.67307173831825   -1.41580990443752
O           0.10621478999138   -0.97521761506617    0.77836406150103
O           0.85147434988392    1.20928915423937    0.00615540472069
O           1.62808978181156   -0.46631352841625    3.06115279579784
H           2.12307881566765   -0.53443856764813    2.21408261249603
H           0.92742254894930   -1.11952856473799    2.97578375136878
O          -1.48948827774633   -2.42454144150113   -0.80586019286812
H          -0.92002889710031   -2.03901177349631   -0.10602674570346
H          -0.89289871515816   -2.90038210744940   -1.38727703925611
O           0.07051270299536    0.36941825486726   -3.81556779015798
H           0.61106485966557   -0.04712666231254   -3.12683297112595
H           0.67481685587016    0.60771524648191   -4.51952104314366
O          -1.82913788817430    0.83625900877130    1.05729128863074
H          -1.43586022439138    1.54210747632551    1.57901996592716
H          -1.20725006984158    0.08453425548332    1.14190510289004
O           0.54025015093826    1.84803417990236    2.52598320742742
H           1.13093994481019    2.53515466201400    2.84016338425389
H           0.76874182982484    1.51491387176985    0.94322950128189
H           0.91329297312450    0.98838444498743    2.86946497544348
N          -1.48354325242165    0.13285084343808   -1.49238501274892
H          -1.75455785405777    0.66131789373230   -0.62919767015233
H          -1.73992182429546    0.58251921948478   -2.36877341786367
H          -0.43895363008237   -0.00746260948499   -1.48303465641714
H          -1.84778724310046   -0.84602353094983   -1.40780655513828
