    26
        -50.46012383  Gyration_radius:  2.4167790195 Dipole_moment: 5.363
 S          -1.38103837928842    1.11826139618228   -0.18585116490568
O          -1.36079691789827    0.08291708495022    0.83685065020058
O          -0.01167994722323    1.46159661398201   -0.59054781381398
O          -2.19612452571269    0.74385175382784   -1.32503313856881
O          -2.01026262008720    2.40305906216832    0.43730394650662
H          -1.32578136145741    2.71341696475522    1.05774453242202
O           1.70115742585315   -1.94046686671474    0.05045056348284
H           2.46832984378452   -2.47410599883192    0.25941947669815
O          -1.23507141976720   -1.32928965264415   -2.36174706756514
H          -1.74762860609814   -0.48605861872516   -2.06615113823007
O           0.39533928146838    2.94630274675424    1.49112984770585
H           0.69968205147537    3.82385656496115    1.25011016038890
H           0.47102488648182    2.39213713883233    0.68215821193749
O          -0.99894523675054   -2.36130552602160   -0.09627767521959
H          -0.02951471689142   -2.42294528589632    0.00206022802336
H          -1.25236622202297   -1.53869809433296    0.38216322930627
H          -1.22133386165007   -1.91485162049923   -1.48124542199941
O           1.07390686450148   -0.40535491523647   -2.10100033362140
H           0.78120725419580    0.39924399121437   -1.61564656767818
H           1.45741313737956   -0.98974780415504   -1.41685649491913
H          -0.23503597333527   -0.98762212944078   -2.42785936754401
N           1.22139241682699   -0.18225797188553    1.94283616259882
H           1.59841113893289   -1.26275640572271    0.79238008033883
H           1.68458422522983    0.71796732933596    1.91952946478418
H           0.25287080391443   -0.01836775635214    1.65627363066983
H           1.20026043813840   -0.48878203047735    2.90780600899141
