    26
        -50.45634926  Gyration_radius:  2.6654910961 Dipole_moment: 5.728
 S          -2.17067463382677    1.60759984971080    0.21133289317441
O          -1.06001884150315    1.90501774061493   -0.66335461473487
O          -3.06428553890422    0.58024054695409   -0.27933214851929
O          -1.71462761283452    1.33515642857598    1.58002387612644
O          -3.04945121210172    2.93376216051761    0.30504816460674
H          -3.90272892288655    2.58730656442192    0.54742381460546
O           0.26723833182385   -2.03880962507198    1.09776787047102
H          -0.30086384909787   -2.63003876885242    1.59320846810651
O           1.35087459184594   -0.51158190196117   -2.17496005237965
H           1.31709753311777   -0.72828002718975   -3.10697068673651
O           1.55251395807497    1.66146115066059   -0.52116895158774
H           1.65198629848103    0.96292882115076   -1.18987868442515
H           0.63490217242478    1.98100723783946   -0.66189807117769
O          -1.10489083678250   -1.07984102978248   -0.85017991979382
H          -0.30355716684260   -1.69551946661245    0.33760744031063
H          -1.87629921061883   -0.49838940443902   -0.67463303555613
H          -0.49184783820089   -0.57671251729828   -1.40551263327215
O           2.30282362939626   -2.54248683266554   -0.66260641785582
H           3.12034150659608   -2.35965700770505   -0.19708869283147
H           1.58787902790665   -2.51727947464235    0.00076133620992
H           1.71356098021349   -1.29763614231054   -1.71391976930391
N           0.73552169383636    0.57676108734190    1.70894314230426
H          -0.28462513326153    0.93563014828270    1.70136337509247
H           1.19716436834628    1.00354040956080    0.83734396664474
H           1.20507437235810    0.86113252947296    2.56060963911264
H           0.68689234243975   -0.45531248658075    1.62006970141042
