    26
        -50.46012384  Gyration_radius:  2.41662741024 Dipole_moment: 5.365
 S           0.64070519995135   -0.98254848156307    1.34779566970630
O           0.08661059499473    0.36537601765620    1.52892137965761
O           0.10215892635308   -1.59199775239908    0.14083088277399
O           2.09052587735635   -0.96846669482181    1.35151887578091
O           0.17804612399713   -1.83580134002451    2.56972310603189
H          -0.77613992096169   -1.64717390545426    2.63072690655102
O           2.89086308723611    0.38782525389060   -0.60226023412942
H           2.73301932711865   -0.18627247709923    0.23822254441975
O          -0.50404247576694    1.30608798677930   -2.16708181447995
H          -0.96518852153760    1.78891970030642   -2.85351064141201
O          -2.15483809705402   -0.51587317551041    2.47875590790938
H          -2.36888850934440   -0.11163489417465    3.32230687915569
H          -1.42295150167615    0.01520401918452    2.09198708848303
O           1.13121207158784    2.10621307619441   -0.15066401378246
H           0.71002907029548    1.59534618635640    0.57757902263882
H           2.28348084178244    1.23729676285567   -0.42708215824065
H           0.53183580076833    1.99894959145979   -0.91603337480598
O           1.25984105848671   -0.78458256433382   -2.09138342789367
H           2.34932082853137   -0.13367883696009   -1.34621642095186
H           0.81732113389056   -1.25956136033274   -1.35077620497274
H           0.64638596886874   -0.06433098785763   -2.33265459701977
N          -2.16293162283503   -0.17769212651871   -0.77066221736149
H          -2.64549924868203    0.22159482726377    0.02504507532218
H          -1.42991730563513   -0.78309429411001   -0.39231020326413
H          -2.82102081420359   -0.77334163232093   -1.25817465415008
H          -1.19993788352075    0.79323709154019   -1.64460336595586
