    26
        -50.46254924  Gyration_radius:  2.4195024212 Dipole_moment: 4.381
 S          -1.28606874686944    0.94772400019310    0.12343732302847
O           0.02431765347971    1.24934533048620    0.71286536573256
O          -1.28659237234450    1.33640951462641   -1.29260491153732
O          -1.66197544987619   -0.43155615809389    0.31456778610529
O          -2.33883371310702    1.83187711549828    0.85407392611866
H          -2.01324873290165    2.73823522656433    0.67302562529780
O           1.66399735463252   -2.25789442049999    0.37396863676723
H           2.24891779469516   -2.94363115407684    0.69764973682337
O           0.23482609001452   -0.21462678043956   -2.53195099604454
H          -0.45559983596612    0.46398001509906   -2.16275925321262
O          -0.76569505001131    3.73312673105216   -0.05215467764922
H          -0.90883814540376    3.38976297173809   -0.94259877157347
H          -0.09285511643845    3.15480062782064    0.33531066770073
O           1.96545631931996    0.19661674747236   -0.76371747401364
H           1.07996627799707   -0.01504262825189   -1.94103835522434
H           1.35923047379482    0.67818244515191   -0.15774961678083
H           2.07295929334006   -0.69030603103013   -0.36893549554083
O          -0.52356487156930   -2.22047033099038   -1.25282385966831
H          -0.10534896413732   -1.14614493575319   -2.14953153126485
H           0.26839268767184   -2.43557846200416   -0.72192195544734
H          -1.09972324830465   -1.69493155476355   -0.65240060911451
N           0.29796939320772   -1.11432913036948    2.30539635325409
H           0.26706742364160   -0.17319457454150    1.91350587300946
H           1.17844354699649   -1.87810129783286    1.17238987517413
H           0.52654559633325   -1.03870329280698    3.28892982768468
H          -0.64974565818249   -1.46554996424078    2.22506651037281
