    26
        -50.46254925  Gyration_radius:  2.41949154975 Dipole_moment: 4.380
 S          -0.82570194288978   -0.41965245051943    1.30719013537199
O          -1.34841064658575    0.44062764091738    0.23847015911063
O          -0.96729250807818   -1.82764069474050    0.91529160588554
O           0.53119081651777   -0.08159398731127    1.66033861316452
O          -1.71445303347354   -0.18965734449492    2.56479567675352
H          -2.60444533072493   -0.44212628319114    2.24155303378514
O           0.61695566120775   -2.27970403902164   -0.96705398031260
H          -0.04422995387294   -2.25193291239370   -0.17001406039832
O           1.98942018684586    1.24148621671706   -1.58297074734480
H           2.54728962859004    1.83931092634207   -2.08143174774671
O          -3.57876147811007   -0.96870185182190    0.88294758974238
H          -3.07936025823911   -1.78308584814718    0.74685157997373
H          -3.14054071614391   -0.30868879738707    0.32653966535822
O          -0.25330444910637   -0.21377030186606   -2.09161868619264
H           0.53947531001970    0.35633524278838   -2.11867733900346
H           0.23923613258686   -1.52723650061636   -1.59523813798081
H          -0.77000764780236    0.09789728893945   -1.31541133072153
O           2.44128792815317   -0.90330454487856    0.03882781556134
H           1.87998236056114   -0.59673367352696    0.78688183728829
H           1.49878795210764   -1.83654257676172   -0.57261176089196
H           2.48583575058749   -0.14326630741571   -0.57405171039789
N           0.67364294661525    2.46576167592118    0.33370247430982
H           1.52905066199338    1.78703480385166   -0.87021469887946
H           0.41047304154187    3.44104538057392    0.40309381723512
H          -0.17979914090516    1.90889872803942    0.29179878049634
H           1.12367872859918    2.19524023000104    1.20101142583829
