    26
        -50.45484718  Gyration_radius:  2.49667501914 Dipole_moment: 5.229
 S          -0.61306667558782    1.45088133438346    0.04596641219440
O          -0.69718359799741    1.80329345916693   -1.35472717688356
O          -1.60554456795891    0.40745648754778    0.38040118240311
O           0.70714461336240    1.03816392349050    0.47138706734772
O          -0.98548802726620    2.70171885313927    0.90890433491267
H          -1.86941069217523    2.94196863276597    0.56661211814424
O           1.24106402482715   -0.30664313582603    2.70666553126194
H           1.05156954924082    0.51035608535950    2.20844700229487
O           0.61034596831145   -2.46490937779471   -0.55740673439081
H           0.19171806482374   -3.22117031355836   -0.97120821043200
O          -3.15673325957622    2.52261682396468   -0.58148778275519
H          -3.35142302531060    1.64187057561323   -0.24361390436068
H          -2.44690677015315    2.38923821178396   -1.23098066527848
O           2.72404349921937   -0.88533539639710    0.55276702168295
H           2.03096960196034   -0.66084123241910    2.24579713667482
H           2.28544412665366   -1.63529837015734    0.13611720115602
H           2.20575559786136   -0.10459409199481    0.30407966944675
O          -0.59707461698728   -1.53679342625669    1.51686442688874
H          -1.09876202430905   -0.70936279461573    1.07142998685916
H          -0.11453683484704   -1.97448104252384    0.73496662498186
H           0.15068362781426   -1.09493548170782    2.12197612363536
N           0.66333653897817   -0.50551363373712   -2.28030521763273
H           1.62682327232618   -0.21107365677141   -2.39251657842028
H           0.15512637397576    0.30314505214205   -1.91547398027753
H           0.29703422767102   -0.69411962498405   -3.20620059099153
H           0.59507099513718   -1.70563789061095   -1.23846098846882
