    26
        -50.46047647  Gyration_radius:  2.51645036612 Dipole_moment: 5.353
 S           1.96988328106839    0.03768305369830    0.97845927599961
O           1.22557053689173    0.33334024964505    2.20336629014812
O           2.22710071908211   -1.36754560147282    0.79421597218274
O           1.34664321881625    0.69627279600281   -0.15845040675643
O           3.39418892205808    0.72376173846609    1.14695072180869
H           3.89786568550515    0.01047974860223    1.52454090527349
O          -2.11080299260655   -0.71388638333832    0.35141943681050
H          -2.85744312663765   -1.25085884948527    0.61902949076164
O          -0.15155034813158   -2.15581930149968   -2.66800797365759
H          -0.79875713759216   -2.48390831011330   -3.29307043450343
O          -0.15966707407306    2.85903236170223   -0.48731073210293
H          -0.59265366904948    2.52476557242159   -1.28322619118652
H           0.64776293097675    2.31266187542146   -0.41308106538212
O          -0.14197112795847   -2.33222520471205    0.07837350033066
H           0.74127779917726   -2.04612213910551    0.38938733227587
H          -1.32527525147553   -1.35274960075172    0.29393013382871
H          -0.04970120637848   -2.44648686295785   -0.88657793571069
O          -0.72504393910539    0.37850832339815   -1.85813361580152
H          -1.38996587212508    0.06183333158531   -1.23079705763236
H           0.10613771919504    0.41853178668277   -1.34691009563652
H          -0.30667802928634   -1.19330610481410   -2.57833300542907
N          -1.01588956181675    1.41366439696355    1.57922221102704
H          -1.50088378015666    1.85404771461963    2.35289915600018
H          -1.56420625006610    0.61914179682714    1.17892118098964
H          -0.79296516686940    2.10367943487149    0.80966400323129
H          -0.07297625944034    0.99550416734099    1.90351891313054
