    26
        -50.46047640  Gyration_radius:  2.51658690142 Dipole_moment: 5.363
 S           1.63871520905787    0.60910773427306   -1.33526366128914
O           1.46511103695505   -0.70511943607261   -1.95552412299062
O           0.88616382044112    1.64976808397505   -1.98752658285755
O           1.43148981174266    0.51730059396002    0.10113934861019
O           3.16996795832987    0.99201926308641   -1.52622132754628
H           3.13747926584225    1.47489510643986   -2.34527959075051
O          -1.92567868760499    2.63065729600925    1.07917663337402
H          -2.71936138972107    2.77278375499875    1.59609085284342
O          -1.98034454824394   -1.07899465827933   -0.04728193438979
H          -2.84303372295345   -1.38615701590194   -0.32808065905267
O           1.66953050296125   -1.40427780725005    1.91898418583808
H           1.00863587228425   -1.02490236641498    2.51223828149386
H           1.92539041864960   -0.65587716931208    1.34412203184594
O          -1.61315612783917    1.16571838932518   -1.22890330812658
H          -1.76589455909162    1.83627686151984   -0.53613495070616
H          -0.72271253085287    1.36208040412975   -1.58553518837038
H          -1.82162701000227   -0.21658011728626   -0.55675284825643
O          -0.57652714975177    0.41454850684993    1.90103718090405
H          -1.18096372422842   -0.16989553009827    1.42251435327446
H           0.14588581740306    0.60201053260617    1.27108649036389
H          -1.39958040300457    1.95168857262172    1.54909348990286
N           0.40729593437979   -2.30073976637963   -0.24799385601089
H           0.45183155331200   -3.28074780688555   -0.50361926711006
H           0.90461152869820   -2.10875703296991    0.66522191234063
H           0.88561313339158   -1.68506072546292   -0.99714444172227
H          -0.57884200014728   -1.96174564749173   -0.17944303160848
