    26
        -50.45476410  Gyration_radius:  2.47357113005 Dipole_moment: 6.129
 S           0.66830199389207    2.16894680808567    0.57779222717873
O           1.28414394264431    1.17114092438494    1.48022842341053
O          -0.68910334871979    1.68148447194563    0.21146888185290
O           0.67131897864333    3.49445882672429    1.08800418156128
O           1.48993245314548    2.14474111956443   -0.75131269443170
H           1.43523283280433    1.24155217990380   -1.13446421629939
O          -0.32201705597545   -2.32169985703462    0.85739143084506
H          -0.22402148063712   -3.23590763500619    1.12508829343734
O           1.41340779431239   -0.24676310381123   -1.91060205305745
H           1.66524116990818   -0.14926018402039   -2.82972499199354
O          -2.46846866820299    0.69963927301104   -1.48087853609155
H          -2.64883365762440    1.31501198764079   -2.19264172921755
H          -1.84187257895755    1.15373263774243   -0.88085889067112
O          -0.88071726966968   -1.45583371799846   -1.76640716876487
H          -1.55610269141073   -0.74763535677973   -1.72256753896677
H           0.52114058245508   -0.70710759937138   -1.90548583416210
H          -0.85887077989622   -1.86004448533638   -0.88579806440529
O           2.00172406747713   -1.21439191499272    0.58113936503954
H           2.08623647120276   -1.04034145960242   -0.36783490164379
H           1.88521104905493   -0.32386057585972    0.98057004262929
H           0.61243840942855   -1.96041178315842    0.74044835989099
N          -0.88778134307580    0.00664260703583    2.08098561849844
H          -0.86501271132759   -0.97577116513863    1.73661361680583
H           0.10674414713602    0.35738310615882    2.20103627524564
H          -1.12486710040542    0.67330281525251    1.26972117664741
H          -1.47340521619783    0.13099206066072    2.89808875666300
