    26
        -50.46047653  Gyration_radius:  2.51642319367 Dipole_moment: 5.353
 S          -1.82967298100700   -1.13851613913973   -0.44201788046164
O          -1.59751392202241   -2.14332590498774    0.56362799301917
O          -2.54181656465776    0.03460565212893    0.06634399661697
O          -0.64336998554104   -0.72631542471362   -1.17519455452938
O          -2.78945499945303   -1.81033789856697   -1.51684126944509
H          -3.25874317089628   -2.43757251624738   -0.97703592795486
O           2.66353966367592   -1.98784420191068    0.86250563697425
H           3.56868600610604   -1.88874380912316    1.15935344237290
O           0.86581390233737    1.37478040822968    1.56494287213263
H           1.09029694467104    1.76337379321574    2.41112820216756
O           0.07918774141487    1.44966149813449   -2.51588776513443
H          -0.31048753409020    0.56862235836292   -2.34877067942604
H           1.02377565381972    1.31722091471146   -2.36462538778032
O           0.34357169556709   -1.08948046903989    2.03902398613421
H           0.61266203544770    0.41389879260505    1.76756618209035
H          -0.40701610494605   -1.50502000539454    1.56717485676451
H           1.13616674843611   -1.57146715834697    1.73536858385347
O           1.89289478059431    0.08036877865562   -0.72995242185282
H           2.52498583627626   -1.32993608456200    0.15082157906680
H           1.03345650878490   -0.35136165978561   -0.89965874794301
H           1.73884293040590    0.65328337521344    0.03422647864959
N          -1.04048602423450    2.09908867131892   -0.18834190509740
H          -1.72997331731662    1.27221072218423   -0.08841769804942
H          -0.59751288555579    2.01083568339514   -1.14436555749658
H          -1.51995073137741    2.98499868181225   -0.07427248656487
H          -0.30788221635748    1.95697195175751    0.54329848193904
