    26
        -50.46254917  Gyration_radius:  2.41948994201 Dipole_moment: 4.380
 S          -0.14819022502797    1.20823982726290    1.04202393393532
O           0.75391602078681    1.21907516673078   -0.11637830190383
O          -1.50248107212964    1.57653780490171    0.61035909682213
O          -0.11807912271283   -0.05323641674679    1.74051043519947
O           0.34728736845889    2.30763081479715    2.02681655990005
H           0.29342548898779    3.11885178848154    1.47978517013237
O           0.66100668962300   -2.56475108812539   -0.99543236242298
H           1.08680548205978   -3.35612017961405   -1.32637976076445
O          -2.40638674522531   -0.28152424873283   -0.79998409722380
H          -2.18502388009883    0.53510413290966   -0.20258695340624
O          -0.06142696198339    3.80954560104796   -0.09184905972189
H          -0.97554602030304    3.50061678482305   -0.10157986964465
H           0.44859223230618    3.09932609330915   -0.50734793433078
O          -0.25512629350823   -0.24750513808998   -2.08759444213415
H           0.11206751602824   -1.13314047809800   -1.89965959003033
H          -1.61865442645069   -0.26821721477742   -1.49575303228175
H           0.20760430825994    0.36116221554373   -1.46940401892815
O          -1.44486624247242   -2.06204954307637    0.66362853476563
H          -2.16249920300881   -1.11214275581843   -0.18422239954681
H          -0.74874966690951   -2.44239487153986    0.09290847921527
H          -0.97795026259493   -1.41796295811837    1.24297535686912
N           2.25395266154041   -1.13358647145130    0.52688592515078
H           1.33442658271623   -2.08128961845589   -0.42057373286468
H           3.26595878630431   -1.10184534289268    0.53802337844105
H           1.91052683163329   -0.21193837788038    0.25688338567963
H           1.92941015371416   -1.26838553637803    1.47794528909390
