    26
        -50.45870298  Gyration_radius:  2.54171641773 Dipole_moment: 6.056
 S           0.43673785888621   -2.16868286959621   -0.14357677676744
O           0.77042331976763   -1.45193133228144    1.08689643122849
O          -0.98938318362876   -2.51686397328374   -0.13753607083225
O           0.85754942460687   -1.48060800751043   -1.32815178604395
O           1.20784526824645   -3.54849531726274   -0.08526170299770
H           0.78733204681062   -3.97214015161366    0.65551701504282
O           2.56355444530278    2.07440804338665   -1.13236161872861
H           2.94021179887688    2.93427280190497   -0.94383665220834
O          -1.21316670795929    1.63778751811608   -0.85893882027558
H          -1.64275105885350    2.41301440355796   -1.22156866068443
O          -0.74165248854153   -0.09883722384796    2.79085457361726
H          -0.13837097967562   -0.75735786461988    2.38502262256496
H          -0.24975029561744    0.72905148386470    2.72385620609777
O           0.95772725290596    1.23844718600801    0.89683789311895
H           1.04461054112034    0.26537323891693    0.87726033528824
H           2.13788495097448    1.76602663519033   -0.30558673843184
H           0.18732409702489    1.45050300472106    0.34794048356098
O           0.54030539345637    0.87272799016480   -2.54384307252224
H           1.34812888246187    1.33458413538604   -2.25306157286733
H           0.67986131597642   -0.05360864055557   -2.26746389723628
H          -0.55910143426093    1.32242978214580   -1.57723807812424
N          -2.21392169746278   -0.38705724149633    0.60477425993328
H          -3.22169490945520   -0.48359548600531    0.66518932242459
H          -1.78011077967790   -0.20705676603271    1.55583658877100
H          -1.76434742627421   -1.30280456009351    0.24678929240323
H          -1.94524564500654    0.39041320081907   -0.03834956633523
