    26
        -50.45870299  Gyration_radius:  2.54167520182 Dipole_moment: 6.047
 S           1.56531188249737   -1.40841464833010   -0.69233160068756
O           0.34888227849963   -1.24570663829245   -1.48788439796686
O           2.49904415093917   -0.31656889715954   -0.99418740194923
O           1.30506390363644   -1.57450847864764    0.70713138511827
O           2.27248408016424   -2.72398457140150   -1.21295304285562
H           2.50421019159478   -2.47806326638152   -2.10229796470957
O          -2.36680713704248   -1.40015193985990    2.14344431985844
H          -3.29657985141315   -1.31694200968508    2.35642164423706
O          -0.38236909155497    1.74418933728798    1.30506129229719
H          -0.64973773973254    2.44679214411559    1.89825076886418
O          -0.70560073452159    0.88465778743895   -2.65854690434823
H          -0.30199192496003    0.00689889640804   -2.48847286104294
H          -1.55916959405069    0.83093635210131   -2.21087255653344
O           0.08873293305279   -0.32103429502496    2.72354853947007
H          -0.76746499944898   -0.78706864318644    2.73331549038670
H           0.64254623127552   -0.84769135704638    2.11537663746517
H          -0.14674140952915    0.95109035957137    1.90393887808539
O          -1.78231389594590   -0.17619355045129   -0.21370783079166
H          -1.37057669298396    0.54525963081436    0.28608435395450
H          -1.04742253432961   -0.70787071591110   -0.57712552878324
H          -2.26001001699145   -1.08717605709748    1.22124835339319
N           1.08768888360091    1.82657859752255   -0.94795513064098
H           0.36034701142311    1.62391900609113   -1.69297701008657
H           0.60984320913418    1.88844186867483   -0.02161272162630
H           1.74589519155057    0.96897350219060   -0.94083236073703
H           1.60673568515158    2.67363760624926   -1.15206436040442
