    26
        -50.45870298  Gyration_radius:  2.54165700327 Dipole_moment: 6.042
 S          -0.12397389856787   -1.75251263267166    1.35114432781658
O          -1.21044437367841   -1.50392194989610    0.40414545298985
O           0.97924536505055   -2.43551388939409    0.66447709701750
O           0.28042746829297   -0.57781954323304    2.06554447371292
O          -0.67421768187978   -2.79521682131888    2.40562809746733
H          -0.80695049927991   -3.56520155077763    1.86285621601879
O           1.38997242020903    1.46398805820461   -0.90359602103765
H           1.90715823417161    2.17889678056297   -1.27568744519388
O          -1.33766306525051    2.94070957325153    1.31071724042748
H          -1.79999281993576    3.72606604870849    1.01711798801053
O          -1.22619540285932   -1.35036383321284   -2.24099386219378
H          -1.38984883549281   -1.62188832594220   -1.31266223196107
H          -1.60275009243825   -0.46263253833051   -2.28601660082993
O           1.18092528755769    1.89012573252399    1.60128669501272
H           0.94575013232531    0.99986893350520    1.92694390442424
H           1.37169150858898    1.63090311546020    0.10381361425422
H           0.35274679046332    2.39914764174181    1.67410631350117
O          -1.37530520243407    1.00236255741434   -0.59659419839598
H          -0.44534726003571    1.19968681476917   -0.78652295253098
H          -1.37654708279937    0.17024750982573   -0.08438011468861
H          -1.52870961644575    2.23926627026814    0.65402390613410
N           1.32074106236774   -1.15227866766475   -1.53179904354246
H           2.05602562934959   -1.52380576025963   -2.12334677073499
H           0.36739264508481   -1.24411460169183   -1.98770204459804
H           1.25779853490089   -1.70914614607059   -0.60728592267060
H           1.48807077271832   -0.14685278577424   -1.30521813841231
