    26
        -50.46047695  Gyration_radius:  2.51756811647 Dipole_moment: 5.326
 S           1.36583321629444    1.67159306398148    0.43195263135788
O           0.57985280172332    0.73179634636171    1.21564340939205
O           2.48083760704527    1.08624805418081   -0.26766538460804
O           0.49049257120857    2.46216623663411   -0.43435489767255
O           1.99441181159364    2.68915237037550    1.47893950755000
H           2.80780264861681    2.92054264475160    1.04328914621627
O           1.54454886884053   -3.06585543584890    0.03456360457675
H           1.32734992921751   -3.98276597672061   -0.13686005330438
O          -1.16678660415773   -0.90726422077341   -1.70254512816857
H          -1.41376915707702   -1.22539223116770   -2.57155860033100
O          -1.92968761746251    0.63392156248391    2.07980715164297
H          -0.97338114654752    0.83779947854797    2.07520899546413
H          -1.96031011863556   -0.33102154443711    2.10417329367641
O          -0.60620220777528   -1.67841086615818    0.95933104182899
H           0.79703309647751   -2.68766541063721    0.54132880461218
H          -0.05620364047448   -0.88404232504861    1.10198727181358
H          -0.96501273113932   -1.57800867779195    0.06646831729824
O           1.39524174146860   -0.90057196489361   -1.65634314722535
H           1.63351811613401   -1.68886093780547   -1.13228369051601
H          -0.15346588503362   -0.86032076272484   -1.70968454955127
H           1.84379858452472   -0.15168668792786   -1.21251803305277
N          -1.83910766719535    1.38810587117945   -0.47236311249497
H          -0.88880993497387    1.90363791350275   -0.46862933588403
H          -1.69716327618118    0.51839048120779   -1.03409727092360
H          -2.04412792632760    1.12338577640288    0.53071719673155
H          -2.56669310016367    1.97512726232435   -0.86450715842997
