    26
        -50.46047700  Gyration_radius:  2.51713720195 Dipole_moment: 5.326
 S          -1.01494205408672    1.79991093391305    0.75850518384457
O          -0.50250853530471    1.66425502963136    2.09796961393656
O          -0.05463272935243    1.50185098045029   -0.29221371984309
O          -2.25424564577389    1.05439632327359    0.53496411633403
O          -1.38188212250864    3.33713136931818    0.58682777441608
H          -1.56238392591351    3.58327224993600    1.48789821651350
O          -0.10936964569056   -2.24897430789045    0.11970288341568
H          -0.21416733843206   -3.14005431269968    0.45499113236767
O           3.10930707118980   -0.48794133467397    1.36922611869564
H           3.81295075976869   -1.13720661963458    1.34281968425153
O          -0.21255037459184    0.68843684038206   -2.81571214756945
H           0.65274385538472    0.25961668660386   -2.80772853523110
H          -0.17675412980307    1.30209080563084   -2.05532495131630
O           1.73065425835885   -0.40277696151269   -0.97532439246144
H           1.20118805335328    0.35376656722062   -0.65727933452194
H           2.79449218914040   -0.37384261446069    0.44913864543524
H           1.21582766343502   -1.18668929756511   -0.73761200462957
O           0.48874692509428   -0.79959168139198    2.14676522486554
H           1.44985562331614   -0.64930242024525    2.06561737383795
H           0.09326107777938    0.09417579927347    2.20711665739916
H           0.07751388203881   -1.67396387172560    0.93412307190831
N          -1.84579821367238   -0.72988134572563   -1.26261938385117
H          -1.27149453332208   -0.25138278263476   -2.01053442976338
H          -1.25070732781966   -1.43586788422946   -0.77321612763574
H          -2.08613531360203    0.02443326026842   -0.52630380669194
H          -2.68896946897895   -1.14586140149782   -1.64179686369157
