    26
        -50.46047679  Gyration_radius:  2.51651255423 Dipole_moment: 5.333
 S          -1.31665777720073    1.67667939500232   -0.54587495429045
O           0.07964024337339    1.51511639489453   -0.17250326081507
O          -1.65848607516365    1.14831063964639   -1.84169105144751
O          -2.18473613044468    1.18780009339893    0.52593220349297
O          -1.56135959773334    3.24504482333435   -0.63743044038289
H          -2.22752703391076    3.28662403467424   -1.31530648494754
O          -0.09632340426332   -2.16982387563090    0.60881770648669
H          -0.35153993445579   -3.09173036212655    0.65707796123014
O           1.78191229492521   -1.25125219298298   -2.65315877777516
H           2.38726204689142   -1.97104845177038   -2.83401022218196
O           1.41604517795914    1.39405066022161    2.12003259873754
H           0.99372699988356    1.78647364184683    1.33037603055176
H           2.13241485832643    0.85791401041958    1.75660030930606
O          -0.80394207032256   -1.36414352035867   -1.71945078686985
H          -0.42438797153182   -1.84538539538758   -0.29421138583466
H          -1.18791174179949   -0.46755708891471   -1.80463601216114
H           0.02649839231123   -1.33745535745472   -2.23181748893102
O           1.98868792409559   -0.38946800263992   -0.08015671666349
H           1.35102840908217    0.32993099331519   -0.25256223405760
H           1.45261383405839   -1.12727130188251    0.24285449910776
H           2.04705254473530   -0.86785813508239   -1.79213088871651
N          -0.77085479581955   -0.12276482031140    2.21810106448573
H          -0.54242155823677   -1.00612806055468    1.70889310838901
H          -1.23394688238433   -0.30592914722383    3.10111102181461
H           0.11368757800119    0.44216910213346    2.34653320398936
H          -1.41047533037811    0.44770191343137    1.55861099748304
