    26
        -50.46047693  Gyration_radius:  2.51675997332 Dipole_moment: 5.327
 S          -0.61470643993511    1.14129554333316    1.77861737237641
O          -0.11549031404121    1.45604994660164    0.44935821186840
O          -1.95209169987755    0.60663939138264    1.80829900236639
O           0.35523147623182    0.31500405962106    2.49838485292604
O          -0.68310176452018    2.52704420622413    2.55483849275389
H          -1.41960158325364    2.37350365866586    3.13719023539349
O          -2.51034089351219   -0.37823918363530   -2.30973606783942
H          -2.65681839044378   -0.82436656286620   -3.14447980051074
O           0.52837993140287   -2.09998691362143   -0.63082587225490
H           0.52395034646653   -3.05395933895941   -0.71641341577567
O           2.28839207633571    1.66464497905560   -0.66147417559812
H           1.97764792050465    1.43724510818988   -1.54717588590996
H           1.47512834260369    1.93359346438838   -0.19007787184577
O          -1.83102707778018   -1.45039275624499    0.13159419793885
H          -1.92328593386241   -0.74114069375894    0.80027203973849
H          -2.26092279775624   -1.10210916898541   -0.67259900869034
H          -0.39160423700058   -1.85569959583108   -0.28098834691142
O           0.09643703993902    0.33728448831991   -1.99669134504365
H          -0.11261232030217    0.79766717457645   -1.16106518905557
H           0.34362870325257   -0.56021059234796   -1.73314709326967
H          -1.61625267929524    0.01841393086035   -2.35363220001080
N           2.13040567217656   -0.52406149476977    0.84743386719503
H           1.61702085063044   -1.23763156789754    0.28254908289317
H           1.43221382924749   -0.17247665155601    1.59448667375583
H           2.95925545507279   -0.91321900815008    1.28251875403526
H           2.36016452771469    0.30510756740878    0.23276349947238
