    26
        -50.46047701  Gyration_radius:  2.51740478024 Dipole_moment: 5.329
 S          -0.22976867972324    2.05999761645744   -0.74196740155757
O           0.73091135428712    1.34355107014766    0.08206228576413
O          -0.23160576739810    1.68031899143539   -2.13157867470571
O          -1.55682690181877    2.01111823555278   -0.12721942011203
O           0.22182095996109    3.58380848419900   -0.70788005711731
H          -0.06735719251311    3.87930028591647   -1.56461413130567
O          -1.16784370125272   -1.91495841275552    0.22738618079112
H          -1.76079436505369   -2.64732410261676    0.05584959131798
O           2.01424910650448   -1.94779470672372   -1.98376135056627
H           2.31239798343852   -2.85668383448677   -2.03246578772984
O           0.91741183213079    0.73077714527662    2.65953863795954
H           1.02207972292362    1.24339990481088    1.83348625653185
H           1.44519967051434   -0.06351874840201    2.50732578549452
O          -0.55085781803479   -0.95586779874753   -2.06760053102365
H          -0.96849861199676   -1.51011888956049   -0.68102181397910
H          -0.48631583751165    0.01709288345139   -2.15745971097767
H           0.35045352320507   -1.28947758371328   -2.23835552323741
O           1.53897283465592   -1.18185589881936    0.58367986786518
H           0.67634462996732   -1.61997415066637    0.58767530431505
H           2.05544321755352   -1.68627886935112   -1.04109830732447
H           1.35658626425653   -0.26632764738855    0.29672827011191
N          -1.54366000240301    0.26719508104436    1.75438088988438
H          -1.50513573010854   -0.64277071969946    1.24212479561178
H          -1.59972714624317    1.03731544742002    0.99762681422979
H          -2.34165903668113    0.31501273199982    2.37781856746769
H          -0.63182030865599    0.41406344522840    2.26933944228388
