    26
        -50.44580820  Gyration_radius:  2.45544598949 Dipole_moment: 6.573
 S           1.20160809129848    1.44517028229490    0.67063805327410
O           1.97816416305417    0.46620418155843   -0.12203629536375
O          -0.21893240722845    1.27282231228823    0.42545805225656
O           1.59148872022614    1.46525930796862    2.04528450204588
O           1.55935678482512    2.86333691637493    0.04988230336887
H           0.96389144021906    2.96720660373879   -0.68797172601508
O          -0.61817869794712   -2.21443644579759   -0.50751289549177
H          -0.51418659281447   -3.16351292288376   -0.58777730301380
O          -0.87969838065380    0.85544448963901   -2.92355306743878
H          -1.32189327092232    0.61588122008297   -3.73971701636763
O          -0.73379772256821    0.58673852679217    3.10931095799523
H           0.13976224263498    0.99715601710543    2.98827867658118
H          -1.27268544026401    0.96608878995391    2.40972944698065
O           0.86937797239489   -0.72904340232111   -1.94778982977544
H           0.24405503252737   -0.06293606982495   -2.40674364397812
H           1.39955848358010   -0.17505490274241   -1.16477615366957
H           0.26637574011384   -1.37786874511496   -1.42330439056669
O          -2.22519027804914    0.08451936847543   -0.83478900557689
H          -1.98255801845609   -0.84027810331805   -0.69060013794626
H          -1.62537960902306    0.58781482323642   -0.25188219786446
H          -1.52118406284277    0.66514394813865   -2.17916747924901
N           0.58348276583546   -1.46180868751179    1.62926697488856
H          -0.03695481507223   -0.92757485061332    2.24557362516073
H          -0.18461526055391   -1.94242816989733    0.40228506209522
H           1.27445768260040   -0.79933943313021    1.28867533117111
H           1.06367543708421   -2.14450505450042    2.20323814651125
