    26
        -50.44580804  Gyration_radius:  2.4554282773 Dipole_moment: 6.584
 S          -1.86551090216559   -0.22566448724441   -0.67084640386006
O          -1.75405594509851    1.02724291480235    0.10864055863074
O          -0.54445665307609   -0.71745977068580   -1.01828804672900
O          -2.73404020977891   -1.17707133705339   -0.05229379926346
O          -2.52572044967785    0.19894813869499   -2.05221913461552
H          -1.79869853639941    0.49886270008915   -2.59190935486139
O           1.66442636250677    0.53689503673325    1.57551436658161
H           2.02524131580430    0.84207780705981    2.40897492662415
O           1.49542398087979    1.82446652523634   -2.11831043159919
H           2.27992060526916    2.32614655947845   -2.34618153259127
O          -0.89328924544986   -3.08986466915543    0.46132482082942
H          -0.34536509730312   -2.85744193427707   -0.29333385812012
H          -1.73016053247982   -2.61978027049534    0.30366918477928
O           2.09360172814999   -0.46153613334846   -1.03094488453545
H           1.15910602435748   -0.73945153230270   -1.07922559158777
H           1.80287223209602    0.91002338810966   -1.85130896785404
H           2.24272616638595   -0.27752681332225   -0.09347699510665
O           0.38578534257705    2.21571587284965    0.14797596106188
H          -0.59358793822222    1.72639342990567    0.11062641460761
H           0.94813912266560    1.59353093714560    0.74530003906100
H           0.78318185400477    2.14852513795491   -0.79180704138957
N          -0.48124784277072   -0.77578817462372    2.07266764859200
H          -0.45608977327303   -1.71382501957813    1.66075063511283
H          -1.19315808374070   -0.26534502873390    1.55798970469722
H          -0.79964184338163   -0.87511087224935    3.02914358682971
H           0.83459830813045   -0.05296238498901    1.80756819470506
