    26
        -50.44580821  Gyration_radius:  2.4554360193 Dipole_moment: 6.579
 S          -1.35075188383644   -1.05252455119139    1.02380020347266
O          -0.48911660455156   -1.26185878396580   -0.12581302543018
O          -0.82648448441848    0.05024727256411    1.85968526137325
O          -2.74150063906826   -0.90158790717428    0.73192223499406
O          -1.18565626488132   -2.36197556034704    1.90833643389581
H          -0.28890498204967   -2.65014680276272    1.75816549993237
O           1.07741993704240    1.95201724736424   -0.75481488105840
H           1.25786133960020    2.89045046939609   -0.82348366111387
O           2.83297008153705   -1.20167561257367    0.76445565214471
H           3.78717190697702   -1.12673186935534    0.71048137799256
O          -2.53314454740552   -0.59314042517011   -1.94619880957007
H          -2.87135409159232   -0.77252212742174   -1.05196233062335
H          -1.74083124782619   -1.13322516915913   -2.01246918665212
O           1.46656105715092    0.82702896632345    1.49810726759491
H           1.36902240771467    1.32513547739678    0.60244169503319
H           0.45278457715996    0.46821344323621    1.70872136328818
H           2.03671641909632    0.00007458309675    1.30683660396134
O           1.69375629574703   -0.69635586497610   -1.51877224427724
H           2.48378176661383   -1.14452367291201   -0.17188596656845
H           0.83461280878618   -0.99813045029367   -1.16706280664564
H           1.61077160521226    0.26580769776332   -1.56604573296160
N          -1.45977567535632    1.64464434214309   -0.54532394994950
H          -1.82374938138688    1.00164698720607   -1.25543326210837
H          -1.56525909662320    1.16497406445761    0.34410996374994
H           0.03870361873702    1.84775540294945   -0.74297764578999
H          -2.06560493238410    2.45640283339713   -0.53482004467853
