    26
        -50.44580821  Gyration_radius:  2.45536009854 Dipole_moment: 6.575
 S           1.20086213667659   -1.50144972850225    0.53348185511395
O          -0.14471626046078   -1.35205828780757    0.00926048927831
O           2.00024223278929   -0.29155316562354    0.23851668153795
O           1.28763946002173   -1.89075637306165    1.90574251199749
O           1.85717999315981   -2.65815671995869   -0.33581164641963
H           1.45118890323116   -2.58139858542956   -1.19550736737936
O          -0.11946505326810   -0.03667203866618   -3.16782037481016
H          -0.40285480919948    0.39802316786648   -3.97390454353237
O          -0.76688819879562    2.22580806653839   -0.03776422463124
H          -0.76766065550564    3.16267213772417    0.16290248801776
O          -1.30219459832009   -1.49407693243760    2.57391875994083
H          -1.62784544251120   -1.68949204814467    1.69101074790992
H          -0.37882263492378   -1.79974525571073    2.56196208652383
O           1.16754730521120    1.30652704745770   -1.41813739505191
H           1.58280937757111    0.58489847390665   -0.70557369607445
H           0.74328479570395    0.76273004129686   -2.17289895810257
H           0.39004683766827    1.74092628188395   -0.90165255091836
O          -1.96663203956912    0.02400467068222   -1.33709688723135
H          -1.44763293445754   -0.58785427659604   -0.78106437094573
H          -1.87805534131204    0.88190190495152   -0.89996779456945
H          -0.92426698807641   -0.10548477372602   -2.57664253191488
N           0.03434242489088    0.96764651142465    2.04811939279110
H           0.29093745276870    1.48548103692064    2.88002972448213
H           0.85975628612207    0.47362061930474    1.72107009070464
H          -0.63148397128605    0.24275650431582    2.33335420700696
H          -0.50731828811830    1.73170173138736    0.84447327628751
