    26
        -50.46811976  Gyration_radius:  2.53454108335 Dipole_moment: 5.653
 S           0.12574949975362   -0.78018785755035   -0.43671182272549
O           0.48122418362790   -1.04952381331363   -1.90039697085219
O          -1.29996514675246   -1.03575056418183   -0.22853870118377
O           0.94362586771644   -1.64085617068251    0.39434756698825
O           0.42324292137339    0.64102050487745   -0.15735127301752
O          -2.85950642617864    0.61606036725748   -1.55876590827692
H          -3.62325931719675    0.09973444678732   -1.82241645663625
H          -2.32167354856311    0.02840376257585   -0.98294479908332
O           2.72523599732859   -0.81542483778549    2.12748289060929
H           2.18108036961777   -1.15450691188486    1.37584329714643
H           3.13917506366871   -1.58420026493454    2.52227993661738
O          -1.15210081651694   -1.49745444584390    2.33100452453880
H          -0.57486291630522   -2.26589284437068    2.31507126123245
H          -1.37444649294436   -1.35198362561153    1.37930832785034
O           0.91302605403160    2.42059317179152   -2.08941300949441
H           0.73778536354008    1.85886433319651   -1.30743554193592
H           1.82445471951483    2.25557252122218   -2.33696456366421
O          -0.78179154527986    0.67419541365021   -3.24433246935869
H          -0.24988803705815    1.46569639097134   -3.01902038612419
H          -0.04288252478409   -0.38967923919340   -2.49790640166779
H          -1.62214684258326    0.77005839613509   -2.74339718449804
N           0.47858833328384    0.57613088258250    2.41336595690517
H           0.28823122866054    1.40830681080706    2.96052174195613
H           1.42976772910525    0.18331103781239    2.58470665071191
H          -0.23409987308855   -0.19614086023980    2.56523507483378
H           0.44543616599759    0.76365339596252    1.35642827912969
