    26
        -50.46407467  Gyration_radius:  2.4724951287 Dipole_moment: 3.326
 S           0.68258702315249   -0.29525167030357   -0.96786858840647
O           0.96244521535131   -0.94527186149334   -2.21989816430639
O           0.20755160761740   -1.23428296560915    0.05823747333372
O           1.74932246834725    0.54392583133862   -0.43911506474431
O          -0.48938272202276    0.74042985399935   -1.18210528065621
O          -0.98699820418608   -2.69947928561666   -1.99424876097963
H          -0.76374007901436   -3.02310783354637   -1.11655006208424
H          -0.21598835764361   -2.14386401322005   -2.24744147718387
O           1.56800208064242   -0.90399493426594    2.33781282465363
H           1.08663692670298   -1.20982774281089    1.53947994834161
H           2.48444749015237   -0.81982982420572    2.06678901875743
O          -1.93645985822033   -0.11990318749655    1.18374622240540
H          -2.58845187585160   -0.06800286138645    0.47853126264876
H          -1.24278507345655   -0.72028242358909    0.84125992641287
O           2.18450543796320    3.08776573475658    0.62472977481205
H           2.23920797713391    2.26277675751816    0.11822308037849
H           2.70376737749255    3.73129834730265    0.14117552945048
O          -2.62839571155386   -0.69793712441514   -1.64061508510290
H          -2.12191036126682   -1.54745500942198   -1.77433004067201
H          -1.31787407467021    0.24841036732193   -1.40558832513595
H          -3.06136993469142   -0.51538005540140   -2.47664627430670
N           0.27626912740427    1.29857162557478    1.63713841934691
H           0.42602475988366    2.26722213698642    1.91149188330444
H           0.74300788601654    0.61122614253746    2.27582740449022
H          -0.72820769257353    1.02008985221846    1.53006942244309
H           0.76778854728500    1.13215413323237    0.71989494279407
