    26
        -50.44580813  Gyration_radius:  2.4553999099 Dipole_moment: 6.582
 S           0.44520124676935   -1.90636781022679    0.38502551898583
O          -0.83673424519996   -1.54401574096242    1.02917602183220
O           0.80385435974481   -0.91133455086678   -0.60950167404996
O           1.46370149465128   -2.22089608182833    1.33679108837624
O           0.13808864651212   -3.22704886974286   -0.44302279687841
H          -0.21772794637968   -2.92094351129250   -1.27336242089821
O          -1.90485255265322   -0.02363012986263   -2.53492987199115
H          -2.47995350498323    0.46959554941829   -3.12232634403985
O          -0.76167006376177    2.16977949748413    0.50159073646693
H          -1.13042261994922    2.87425696565355    1.03613049394787
O           3.15075454851633   -0.18533726351758    0.77032723389155
H           2.88426271657161   -0.13545956633567   -0.15180590693412
H           2.77859941574460   -1.02833554637427    1.08182733434147
O          -2.24756041934090    0.16461151705316   -0.01150251923496
H          -2.19306761038303    0.02296274257789   -1.02274413786689
H          -1.65554875512769   -0.63340644584362    0.44985435728061
H          -1.70848870749489    1.01803516374147    0.19107649388057
O           0.26753527981181    1.29442418153835   -1.97795173977748
H           0.64516645415810    0.50613456417140   -1.54341884436890
H          -1.03785650761190    0.47470087716545   -2.49135376524198
H           0.03878859100976    1.88599208946602   -1.24811958316720
N           0.75564953595757    0.74703812551919    2.00100795446348
H          -0.09452961497545    1.64901851492882    1.11305629084969
H           1.69851085135265    0.65680472260611    1.60968978547810
H           0.85711122339039    0.98222278751606    2.98103780313592
H           0.34118818367377   -0.17880182199219    1.94344849152014
