    26
        -50.44706762  Gyration_radius:  2.48406031839 Dipole_moment: 6.060
 S           1.61140090347892   -1.13671237266805   -0.35501279557042
O           1.56375127063673    0.19459435503704    0.22636271829188
O           0.29489903139744   -1.79589853180728   -0.21676418398029
O           2.12133506919417   -1.20535302990465   -1.68844368656337
O           2.59098061497993   -1.97018868080688    0.57352158182664
H           2.40813982527221   -1.66006994663247    1.45621410136653
O          -0.33883710671182    0.09547518081328    3.21522435584540
H          -0.87001703206162    0.39472252266766    3.95494176832040
O          -1.82514415766069    1.47199107330968   -0.12469762441810
H          -2.68796818770081    1.57363442183767   -0.52879894978370
O          -0.20792474958740   -1.64856409264010   -2.97772716909905
H           0.73921818807745   -1.59327246650206   -2.76095128108715
H          -0.57852064674822   -2.16939825488036   -2.25973929243283
O           0.31986133268919    2.07354806196218    1.66124573612631
H          -0.45239541191987    2.20733659420927    1.09620020699894
H           0.00349524786845    0.91456883695650    2.75383982459710
H           0.93001909584127    1.53022757654813    1.12820957493197
O          -1.48573943663025   -0.73254248266967    1.08651695107621
H          -1.66698473223998    0.16317771985035    0.59836242457827
H          -0.70397745251458   -1.22527075873520    0.51315425177603
H          -1.06221626426807   -0.49258196310851    1.98442489691104
N          -0.10446741129673    1.00826530531115   -1.94827774193408
H           0.15779829345740    1.72269526882504   -2.61555163359230
H          -1.14119780580518    1.33590657215956   -0.91178018500083
H          -0.33020519047327    0.15844320429343   -2.47320718543889
H           0.71469673272818    0.78526590655151   -1.38726667374950
