    26
        -50.44580809  Gyration_radius:  2.45505486549 Dipole_moment: 6.578
 S           1.70015116672642   -0.29427053858752    1.00055063547492
O           0.27859833622443   -0.45487454562403    1.24762960391752
O           1.96541834507698   -0.27540220045729   -0.45512714342938
O           2.32446859006068    0.79541095847683    1.68240465022729
O           2.36606711519939   -1.63634536192200    1.52925021667152
H           1.70918113402579   -2.31235909731016    1.38330600184528
O          -1.37346488469709    0.92559960596972   -1.67270385749042
H          -1.59366759044064    1.44978580681061   -2.44390244142171
O          -1.08321356542700   -2.87598514288808   -0.77509115648868
H          -1.71996022382176   -3.39916171672525   -1.26488291472341
O           0.08124660651361    2.05337008668116    2.51679045127259
H          -0.43026479280217    1.24191521781935    2.57737019936986
H           1.00108428329159    1.75064954748331    2.42478630631454
O          -2.19790020875677   -0.82908413335926    0.38047707953988
H          -2.24024718432604   -0.13565029248283   -0.29205736836092
H          -1.60456737889399   -2.20689526970047   -0.24368811090173
H          -1.37277506404874   -0.64503955733148    0.86844383385858
O           0.21603982978113   -1.04105191803509   -1.98649215312723
H          -0.45442570208700   -0.26198430049494   -1.92763090328815
H           1.03044821592860   -0.73495306510981   -1.31993860187684
H          -0.23726434859248   -1.84469246121676   -1.54618645472744
N           0.37925778941444    2.21214371356678   -0.31303484152750
H           0.08732851134983    2.33673778801761    0.66137061806131
H           0.71391166930024    3.10886351066783   -0.64464859772864
H           1.16973883765416    1.57434433546313   -0.28683078334123
H          -0.71518949666361    1.49892905029537   -1.10016427811391
