    26
        -50.45484721  Gyration_radius:  2.4964743994 Dipole_moment: 5.244
 S           1.25465122265864    0.94792507226331    0.08284657614439
O           1.23943441726633    1.38682198440816    1.46138334655574
O           1.62370413661126   -0.48103314270384   -0.00348440277476
O           0.01620942380416    1.18720112612061   -0.62638804331074
O           2.36540563942749    1.73389321509627   -0.68950038525891
H           3.16592319103707    1.55091095879176   -0.15849997345913
O          -1.86846745157720   -1.75934063850828    0.42328904152184
H          -1.98050784644668   -2.56749139497785    0.92601804429545
O          -0.67957927463542    0.01654768361864   -2.91449426869320
H          -0.20339048615341    0.68947517473028   -2.39289090774146
O           3.81916758700454    0.70394799767860    1.25800758116359
H           3.60338689753887   -0.19453794796574    0.98624395697453
H           3.03022870072349    1.01835810601661    1.72954302229381
O           0.01598271669177   -1.80253100214887   -1.32871886042455
H           0.76905240116250   -1.27995888228360   -0.78543786591089
H          -0.76218418497670   -1.84940548623360   -0.67468724794291
H          -0.27289860363845   -1.12760436180973   -2.09131096367604
O          -2.63538702869601    0.50403816059003   -1.15152886462357
H          -2.72434744422377   -0.30736726985974   -0.63942523447925
H          -1.85420543271669    0.95566892118827   -0.79693490241289
H          -1.61172840762558    0.15371597521647   -2.64194073063546
N          -1.24309261886762    0.16011363862988    2.07789622776386
H          -0.33925477748709    0.56712749926931    1.82786449813663
H          -1.20124543946634   -0.07504415183801    3.06276211599042
H          -1.92819708799489    0.90004918361170    1.97448859576736
H          -1.59866025942038   -1.03148038890519    1.08489966474429
