    26
        -50.45484720  Gyration_radius:  2.49648768316 Dipole_moment: 5.246
 S          -1.28756777605091   -0.17801438019391   -0.88920352526306
O          -1.46316654964897    1.13460560388903   -1.47178928635845
O          -0.10049483019413   -0.84660833703732   -1.46307476068945
O          -1.20983633658232   -0.17675193055058    0.55578224597510
O          -2.51658888755784   -1.07038456792605   -1.26503360990354
H          -2.52885907890468   -1.01790159620067   -2.24144623184648
O           2.32943112509411    0.62281489955077    0.97583551337696
H           3.19921282207513    0.85085868017493    0.64434052719168
O          -0.26487924895673   -2.18047518500326    2.03301220975812
H          -0.96386222286682   -1.73616939272107    1.51759342889734
O          -1.73027173445859   -0.35300598736543   -3.68038689109484
H          -0.86906008612306   -0.76625325068432   -3.55697562107159
H          -1.67931533298418    0.48219589533048   -3.18697710219374
O           0.22925659096085    0.30619204285014    2.89411103961344
H           1.09570090774647    0.53140386874349    2.53756061857512
H          -0.39408330483208    0.41060110971536    2.15889636097820
H          -0.03404847225415   -1.50648528506738    2.70723095730621
O           1.44798368562402   -1.68775583022886    0.26384138057397
H           0.79407587994092   -2.00549069850634    1.03342366393169
H           0.79955485965867   -1.38928905211241   -0.52698606643309
H           1.86063894804108   -0.81246645365551    0.57860266243319
N           0.61077627002610    2.34806562206193    0.03625610003323
H           0.13806190227941    2.78056037889249    0.82178598031046
H           1.67245298765459    1.29214575289748    0.57493071837329
H          -0.11170305271088    1.87248205562924   -0.50869662844663
H           0.97659093502046    3.09512601751456   -0.54263368402957
