    26
        -50.47008416  Gyration_radius:  2.40474930116 Dipole_moment: 4.423
 S          -0.42311538715039    1.12566139465296    0.21512895112906
O          -0.14807147340185   -0.44611229626265    0.20776865424436
O          -1.43789634135205    1.35920392195914    1.21238969745057
O           0.88138540149868    1.68806710346270    0.56595395602757
O          -0.82003748157773    1.45582401938904   -1.14057094137358
O          -3.43085522982270    0.92794933937291   -0.48336742451142
H          -3.01589648637561    1.41640267833536   -1.20297858130890
H          -2.88164819210698    1.15994895034007    0.29404034829611
O           0.66455461059679   -0.18240051125784   -2.54912853035614
H           0.10310243780099    0.52057497251553   -2.14048419179904
H           0.09251913801642   -0.95023168731090   -2.61642623694188
O           2.08535346099704   -1.70057347155834    1.35077522648581
H           1.26143439014501   -2.09154303702716    1.04673237543982
H           1.80283243125062   -1.03724594691967    2.02111789050067
O           0.96291169657971    0.27283721070268    2.81127851536061
H           0.99572795539246    0.93042932701072    2.09143374002618
H           0.03717054142658    0.24118999451475    3.06323095619096
O          -2.35025674106361   -1.44287717708892   -0.73765254459789
H          -0.97060785426123   -0.87502314247962   -0.15220271048004
H          -2.81558069889842   -2.02415761991221   -0.13265508110223
H          -2.86491306808056   -0.58811977386795   -0.73865318128506
N           2.49217351355608    0.03982440525590   -0.61422034352028
H           1.90636342330257   -0.19649287467429   -1.45577563778839
H           3.43909120116615    0.29914341874348   -0.86861784499197
H           1.96988460001649    0.84126408115745   -0.14930508389843
H           2.46437415237897   -0.74354326907946    0.10218802282462
