    26
        -50.45484723  Gyration_radius:  2.49648975175 Dipole_moment: 5.246
 S          -0.88188365893758    1.30426676117045   -0.03793973634008
O          -0.21934618832094    2.17065396098157    0.91263204264559
O          -0.05646464729220    1.13826325459886   -1.25307326599271
O          -1.24716679221709    0.01054968587778    0.49781953776862
O          -2.21322734040405    1.98210732673763   -0.50279406147099
H          -1.90752013479722    2.85003326543000   -0.83379327002992
O           1.92911149789753   -1.74284504942129    0.07723102112846
H           2.85430091557252   -1.78746404388089   -0.16866465085309
O          -1.87497294191703   -2.12277546527393   -0.96626376202645
H          -2.08207039423606   -1.27031947840225   -0.53955496117127
O          -0.50048664346991    3.89504857224058   -1.11454342138822
H          -0.20185431268102    3.62142126353935   -0.23161559737842
H          -0.02773452945802    3.31940740880418   -1.72515001944399
O           0.30030486054659   -1.22956859645050   -1.84786268906748
H           0.14516392274195   -0.19050503817844   -1.67073927172599
H           0.96875867078288   -1.49794072734369   -1.12904788742806
H          -0.62063975167429   -1.68058950569229   -1.58480752903171
O          -0.52449321192843   -2.55866692860253    1.30449801363271
H          -1.56055159793147   -2.66829280520469   -0.21420657086815
H           0.40402479876825   -2.58116790544428    1.04781486039683
H          -0.76889867245907   -1.62080685571547    1.32957399459569
N           1.62470105794631    0.20223445538040    1.79096477802175
H           0.96211267675340    0.89353873249522    1.43288712846516
H           1.82974671941341   -0.96083965771207    0.72442577058715
H           2.45875428471820    0.70603337485453    2.06955794274279
H           1.21033141258292   -0.18177597479618    2.63265160424304
