    26
        -50.45484718  Gyration_radius:  2.49650359484 Dipole_moment: 5.248
 S          -0.91682428967940   -1.15194203062330   -0.55904493853429
O          -1.26353768443461   -0.76821781131449    0.82580470869411
O          -1.76466233567337   -0.46066046649783   -1.50582105049092
O           0.49954466182204   -0.96462623825045   -0.78909518090775
O          -1.18237567340264   -2.69013624912196   -0.66636334023624
H          -2.14764627991181   -2.75148813436560   -0.52232366900853
O           0.97930837921544    2.22776474476672    0.91821174951418
H           0.66620510879554    2.99489725681892    1.39978021365062
O           2.41156332638245   -1.46627018687759    0.99426326292912
H           1.77159097738464   -1.73312243427522    0.30802372352277
O          -3.63656938614463   -1.84527036843173   -0.18623179140878
H          -3.37529518727962   -1.47113335629507    0.66197550149419
H          -3.32150261836532   -1.20772831119911   -0.84795073157389
O           0.69572760442078   -0.02544540034147    2.12859259186045
H           1.46927616048136   -0.65331727999410    1.77046174211945
H           0.85230285773742    0.89050060311014    1.71373405188696
H          -0.17995790069620   -0.37813880855854    1.63480224638870
O           2.78066786529647    0.63081695885604   -0.62950982404362
H           2.00053231410552    0.17292425928095   -0.97826165393251
H           2.44322301158199    1.39130278589108   -0.14336733456712
H           2.94921835786909   -0.78739238156488    0.53379285445338
N          -0.40268939471071    2.01819466952084   -1.28609287605887
H           0.40834226885771    2.15035002199579    0.07656122211175
H          -1.09685011244172    2.73452149372494   -1.46519241427596
H           0.24535229553723    2.02614835082339   -2.06557279963148
H          -0.88494432674840    1.11746832292824   -1.32117626396001
