    26
        -50.45450934  Gyration_radius:  2.45189368796 Dipole_moment: 5.290
 S          -0.10999734909776    1.21915389627520    1.69223330857565
O           0.91345882669250    0.09173652260313    1.90904129909808
O          -0.81501058762574    0.99289817470186    0.44364028880286
O          -0.92340488833777    1.30702605235171    2.85049243283916
O           0.75114944593123    2.48913453383369    1.51733280868002
H           0.77193914580658    2.72993154946864    0.54140602812160
O          -0.36024896082083   -2.55769588930110   -0.40197068365061
H          -0.28722300976169   -3.50762573701144   -0.30164920401127
O           1.31162465056288    0.66474448685515   -2.34744132548711
H           1.60206255812947    0.61974202401824   -3.25907552467465
O           0.54829860595816    2.91001804795960   -1.01592976074900
H          -0.38730347248922    2.68222565257711   -1.01729679556164
H           0.98980066067192    2.18533413118768   -1.50289752717077
O          -1.05499642306119   -0.32641467355204   -1.89865617545055
H          -0.93421718414907   -1.24203338961284   -1.60532584682927
H          -1.15702091578473    0.17939980715768   -1.07342025688392
H           0.38508821053167    0.28985661863232   -2.31331628717018
O           1.82142147200657   -0.95100827646560   -0.20325402294956
H           1.33387144417279   -0.28285693484294    1.04817635057532
H           1.10847925344262   -1.60723859354237   -0.34997441396561
H           1.78953897547292   -0.33551357197911   -0.95833499819484
N          -1.53621026472564   -1.51215966468285    1.75124635787451
H          -0.83126522595509   -2.21701425996801    0.41280878242538
H          -2.40703596452784   -1.81894730569701    2.16878848499263
H          -0.84970141378270   -1.44021575610195    2.49371244938424
H          -1.67309756926083   -0.56247744486694    1.41966422137613
