    26
        -50.45484714  Gyration_radius:  2.49652721531 Dipole_moment: 5.248
 S          -1.53439246381039    0.32744829179064    0.13560485143328
O          -0.67678807824208    1.51210031052753    0.35110037058471
O          -1.99866720429856    0.27792159493125   -1.23371205356801
O          -0.84874559582190   -0.87065097189285    0.56975658301996
O          -2.76606291794114    0.50049212691643    1.08485969753303
H          -3.19534175345890    1.30609882113155    0.73413739531096
O           2.49310285553168   -0.16514171303872   -0.72249916962025
H           3.12860742527443    0.36564291231006   -1.20501107914920
O           0.72124182508248   -1.03444997119598    2.71374674159021
H          -0.14863743726553   -1.02578379326050    2.27226285446124
O          -3.11535637847729    2.59255380293852   -0.48628538535976
H          -2.89585974905850    1.88959413720336   -1.11972028945516
H          -2.26645066565984    2.96725064643971   -0.22813995014354
O           1.49521842827888    0.94384663109722    1.37438322084586
H           1.24570082508770    0.15571637909968    2.03580230838791
H           1.96346568858865    0.51559078244021    0.57887127763348
H           0.55920359503289    1.25882798762086    0.97460650629668
O           1.42621519714214   -2.48274971956993    0.57460006099364
H           1.18789147401007   -1.76434555856522    2.25386867304022
H           0.54518298502411   -2.13514375586711    0.36761199212511
H           2.04744846323802   -1.93051546437788    0.08713520943595
N           0.46447639525375   -0.65018931750738   -2.29169347610472
H           1.69934269981077   -0.31893607558162   -1.34429356982690
H           0.35308993266257   -1.65539353587324   -2.36082717758302
H          -0.39963917306662   -0.29185553121695   -1.87937204874797
H           0.51575362707468   -0.28792903650107   -3.23679355313839
