    26
        -50.45176839  Gyration_radius:  2.43710680548 Dipole_moment: 1.853
 S          -0.71453242274368    1.38193489132830    0.95633261955722
O          -0.48890334737779    0.12176844470254    1.67825754293264
O           0.22325904426744    2.40599389108534    1.32244695831579
O          -0.85732214731864    1.13748655969822   -0.46465064061908
O          -2.15015231899218    1.88527025677036    1.42241819052469
H          -1.98055240970173    2.41497536838896    2.19512281520722
O           1.14039316335081   -1.92515193147114   -1.06237956609778
H           1.78990663164507   -2.58978400372397   -0.82895874402780
O          -2.60412569375116   -0.74288425056082   -1.19792382190125
H          -2.34904658751046    0.13572063014588   -0.85886910846802
O           2.08655335037850    0.82189850329136    2.49576176289438
H           1.57781199841876    1.59915370478641    2.21018801948105
H           1.41203902485186    0.18105253817546    2.74056534922293
O          -0.99646843534092   -1.90109345958269    0.33248731861554
H          -0.79991399108053   -1.09014990005134    0.96881901189350
H          -1.75632568734072   -1.53125684993909   -0.31019757141194
H          -0.14782637202356   -1.99289117540736   -0.24169935397061
O          -0.52676837542082   -0.43660561788951   -2.83105499432048
H          -0.44579553426776    0.33914296234912   -2.26056456667667
H           0.14266544254950   -1.06042985197847   -2.52462508940336
H          -2.11218161036966   -0.79988898073323   -2.04720401126781
N           1.96578716121393    0.40202642713622   -0.32700687056164
H           1.53248326151946   -1.00996493057440   -0.78230994578786
H           2.66163446568402    0.88488464934067   -0.88211914426579
H           1.11291132241065    0.95356895681630   -0.34819428273704
H           2.28447004747828    0.41522316719666    0.64535812690795
