    26
        -50.45476404  Gyration_radius:  2.47360332428 Dipole_moment: 6.129
 S          -0.98743286991435    1.65903807383440    1.32576415800755
O          -1.84919508321025    0.45826591378516    1.25743650961600
O          -0.29779246196637    1.80504967714445    0.01523922566979
O          -1.66384692006762    2.83735901040566    1.73983790924148
O           0.14415360285435    1.34549028999215    2.35695224779666
H           0.64965152298114    0.56615913992068    2.03658214650724
O           1.60978973240375   -0.74067892202108    1.60271111071999
H           2.43924727213628   -0.72039135650095    2.08155423989185
O          -0.45358048306407   -2.00250255104988   -1.41920452521907
H          -0.60867641235239   -2.88287481614878   -1.76267077787048
O           1.82949352164413    1.73539606944155   -1.55469597061365
H           1.06159764343711    1.85811804795550   -0.95962254539586
H           2.47256464916664    2.39818724800477   -1.29976354455737
O          -0.79390256370255   -1.96830252027228    1.14699573371061
H           0.08713746601743   -1.80739107627333    1.51557019891483
H          -1.27961887805625   -1.12888380903429    1.30703953644962
H          -0.57335571509648   -2.06461863872457   -0.41958092708411
O           2.08636975627291   -0.87473245368214   -0.94694805751942
H           1.84325135096297   -0.78191668408634    0.62707193945260
H           1.28204365260476   -1.28628658209596   -1.29769168761425
H           2.08077782177880    0.04975901581387   -1.27084978704063
N          -1.84616652517873    0.29487141597260   -1.27388239575006
H          -2.54089485323055    0.62100600980218   -1.93496685919212
H          -1.38280769700503   -0.59040209322812   -1.56692104116835
H          -1.10234448351624    1.03208860035553   -1.02469047718124
H          -2.20646305589933    0.18819299068915   -0.28126634977103
