    26
        -50.45176938  Gyration_radius:  2.4370466051 Dipole_moment: 1.833
 S          -1.20965443511434   -0.62047438337731    1.21839152006229
O          -2.39085966712018   -1.20475839776559    0.64759794507889
O          -0.00853091733585   -1.43812228775514    0.99901154970177
O          -0.95718845500457    0.76181622223013    0.86449462545015
O          -1.42534327046837   -0.59873277713714    2.79473156240614
H          -1.99173678506960   -1.34363175780165    2.97006467481132
O           1.21495596531017    1.89881256360674    1.91881837685832
H           0.30723721154477    1.54163728645028    1.94522869528075
O           1.66155949808041    0.56278506982022   -1.74842537135681
H           2.19225204195042    0.10799182628798   -2.40389091776858
O          -1.17947860871286   -2.97208759857063   -1.01648931383187
H          -0.41966474309566   -3.02837763943490   -0.42896667522467
H          -1.84898670018028   -2.50614742887745   -0.48833548316147
O           2.06183293893590   -0.10585390242876    0.68105761692471
H           1.83734680563505    0.75631446125099    1.25830694628444
H           1.23493100473831   -0.73001370305111    0.84546892340854
H           1.98319452940626    0.17520324578806   -0.30581520826664
O           0.50199436594951    2.83069959395930   -0.46883900279150
H          -0.26901744643797    2.30220937084123   -0.22368628921058
H           1.16980230120419    2.55367351249121    1.18708531809573
H           0.98920341734286    2.30291953602613   -1.11326892820116
N          -0.77253897509967   -0.27349966083603   -1.86001044294621
H          -1.15161054671931    0.03687104775380   -0.97008258307953
H          -0.83620778508988   -1.29480777132602   -1.85150109094318
H          -1.38444973270492    0.06376725836652   -2.59306434917016
H           0.69095795796506    0.22180633343308   -1.85788205863112
