    26
        -50.45176836  Gyration_radius:  2.43706369847 Dipole_moment: 1.857
 S           1.28875393045047    0.14127630303172   -1.28570252000198
O           1.67341319212169   -0.51659209088523   -0.02892148488847
O           1.15279412526348   -0.78320140563344   -2.37621159661483
O           0.16697440681166    1.03317404940081   -1.07246433760262
O           2.50247720702456    1.10415230424611   -1.64793197713831
H           3.09108853711868    0.56477281384064   -2.16668851648864
O          -1.65104812944773   -0.46602123511854    1.78618177124094
H          -1.86341583874745   -1.17157164599166    2.39869838509208
O           0.38080022175690    2.78519434142551    0.93022419242468
H           0.58687784656727    2.43458193896322    0.04319019760635
O           0.98988295832990   -3.06998143917394   -0.92579010054200
H           1.08832712342499   -2.44550421555385   -1.66383189185737
H           1.51756050795223   -2.68125075703603   -0.22148114856474
O           0.68633778905938    0.53769526917779    1.98976472739705
H           0.59623233785361    1.54559408399694    1.66806228908131
H          -0.26474649135283    0.14566361091772    1.99046525244316
H           1.16653051111578    0.06725540534028    1.18411966558277
O          -2.09762736014313    1.98136141639758    0.39599699568047
H          -1.61115749946213    1.64156133100804   -0.36671996088979
H          -2.25553872785631    1.22044347422085    0.96811186979524
H          -0.60059867913034    2.84322835461985    0.91882194131256
N          -1.32336820023033   -1.43000341263025   -0.58046798925040
H          -2.13295555608059   -1.67446741925381   -1.13766282886201
H          -0.83251735973576   -0.67888351392954   -1.05681680317595
H          -1.56681943968530   -0.89615092805997    0.84925149272396
H          -0.68825743297878   -2.23232663354422   -0.59219762454134
