    26
        -50.45176941  Gyration_radius:  2.43710875549 Dipole_moment: 1.833
 S          -1.39153512866040   -0.48018870459483   -1.08009163970824
O          -1.69266596462755   -0.28577117906242    0.34498920344932
O          -1.90485122898495    0.57729473072900   -1.90508639843469
O           0.00948998344373   -0.80008641288934   -1.26624700947104
O          -2.16543063201084   -1.80555711294283   -1.49986926353469
H          -3.01666450076316   -1.50202944209943   -1.79933703616173
O           1.69982675556502    0.84153506557119    1.59285406534924
H           1.74952669646249    1.45210535130579    2.32962149195587
O           1.00276666072501   -2.77588609520658    0.22787730389208
H           0.46839290674187   -2.40534827485333   -0.49967611418620
O          -2.32891243948901    2.41550536681483    0.04442127450485
H          -2.47214517713378    1.72018159867628    0.69377637156741
H          -2.34282476760720    1.94687682640012   -0.80681657474624
O           0.08650548701369   -1.11647282367181    1.86351171119086
H          -0.72005836335837   -0.77997939797489    1.28294959632810
H           0.49305149337458   -1.90755211694130    1.28417664508889
H           0.77008298033553   -0.34803663508696    1.82859629399097
O           2.74482102272591   -0.87496827884566   -0.42845292350153
H           2.71660581060442   -0.23285377736542    0.29133426823105
H           1.89193608938873   -2.39060097694425    0.06297215462791
H           1.99519996107091   -0.66343950772007   -1.00041408730468
N           0.45678788363043    1.94456422855076   -0.37554314474704
H           0.21089624165350    1.14629964835649   -0.95376487324166
H           1.22810619200557    1.34116350022298    0.81937066393756
H           0.94099055839514    2.61458412624728   -0.96050083103985
H          -0.42989850041010    2.36866027320279   -0.09065111818882
