    26
        -50.46328770  Gyration_radius:  2.42781891309 Dipole_moment: 7.583
 S          -0.43805821339782   -0.23554466706259   -2.07397686378658
O           0.64866705412225    0.60288564333665   -1.53573757552780
O          -1.41885834772542   -0.45352061748113   -0.97547071934206
O          -1.02687025723902    0.27457422851738   -3.26109861776275
O           0.18235842003563   -1.63830969839188   -2.36463151136092
H           0.61043207966845   -1.93969780486004   -1.53377728284968
O          -0.19345211688359    0.13348313787482    2.46236002462369
H          -0.22009301569298   -0.02390178194614    3.40643567566235
O           1.44709080567325   -2.44967548577124   -0.15576504967929
H           2.22769471391923   -2.92419748468817   -0.44489096148647
O           0.24077202231259    3.05880091404979   -0.82155033232759
H           0.42794721362601    2.20737201046945   -1.29185305200336
H           1.09217644754708    3.38441415758300   -0.52316628263858
O          -0.95171162428587   -1.96500166437381    1.14234658888579
H          -1.26138076391138   -1.51342936622392    0.32603214104606
H          -0.17184930663809   -2.46217972846879    0.86104065477456
H          -0.49601339059198   -0.72047750818639    2.02339140863985
O           1.96160096759278   -0.03050685583700    0.64195497226796
H           1.76159036019718   -1.57011292996369    0.20498998379426
H           1.53930848253755    0.29476372291417   -0.18759826326505
H           1.33318701962147    0.15389508115286    1.35558301653135
N          -1.47520790897091    1.58690451278410    0.56932884127210
H          -2.40371562445899    1.95805328947996    0.73680736287202
H          -1.52101232742161    0.75046487736221   -0.12714545996600
H          -0.84708492940154    2.30756885108375    0.12733476648899
H          -1.04751778025710    1.21337517663735    1.43905656513879
