    26
        -50.45335453  Gyration_radius:  2.50793659496 Dipole_moment: 8.504
 S          -2.21804710904668   -1.03806034189153    0.29237429313738
O          -1.62352376539412   -0.55440210130215    1.56469904777420
O          -1.10536387006484   -1.40318505242446   -0.61839871519568
O          -3.17544917927574   -2.07165125286014    0.47225450408866
O          -2.92150995781582    0.19628291706944   -0.35738936147871
H          -2.23299173180830    0.85227919479421   -0.61176640267955
O          -1.09516972300944    1.95024045619673   -1.19134790146252
H          -1.55046275928193    2.52953392081691   -1.80405380130130
O           2.13721892570354    0.47961161528105    1.30096816882788
H           2.66585342514699    0.83273231175863    2.01739267861382
O           2.62062640501373   -0.09321178682343   -1.34610811444476
H           2.51641247574913    0.16763741056728   -0.41516264910186
H           3.27364691897461    0.49332735190621   -1.72985229514617
O          -0.15998839281509    1.63525510249080    1.37017170881474
H           1.26799536870096    0.99582369589008    1.31630015698179
H          -0.42407672120297    1.97968730311359    0.50386639687458
H          -0.78616509208146    0.89643007934617    1.54877916818174
O           0.10990366718349    0.06804128837891   -2.47054945755644
H           1.03521417041556   -0.03644447436332   -2.18377157087803
H          -0.38712497763628   -0.60847949765896   -1.96898535422548
H          -0.57709862986354    1.29173846164245   -1.75142015645223
N           0.57878001355846   -1.74529283825534    1.23382914088290
H          -0.27536859790372   -1.32391404350652    1.72251855801252
H           0.84175726061439   -2.66158818130892    1.57682821466517
H           0.12627459845791   -1.77282933219958    0.26374603898019
H           1.35865726768118   -1.05956220665863    1.26507772408661
