    26
        -50.45335444  Gyration_radius:  2.50740897948 Dipole_moment: 8.545
 S           1.64224152002673   -1.52530916471631   -1.02968894994187
O           0.80808300477192   -0.46446923407686   -1.64488306837552
O           0.84438559810792   -2.16223436343025    0.04951678343497
O           2.17196916382635   -2.45416439676625   -1.96450240600119
O           2.82474204444166   -0.78987280685698   -0.32117841908995
H           2.45812989945324   -0.05085993377138    0.21577154316098
O          -2.20805410838111   -0.04494236786365    1.27182973209957
H          -2.80955962379942   -0.28986968047328    1.97572676401359
O           1.90451175820841    1.30771332261083    1.04393439407756
H           2.66698146163513    1.86077980044914    1.22016032896356
O          -2.00342001319940    2.11242825487411   -0.42228932364373
H          -2.34181230858862    2.91833760576807   -0.03000478814877
H          -2.11681237954814    1.40599186394697    0.23629586768158
O           0.67685618218846    2.12728843996413   -1.06650602433271
H           0.79008159041485    1.25170066528642   -1.48701789109396
H          -0.28295780230370    2.21400374634710   -0.92406255896979
H           1.42119636850700    1.72655741839837    0.26515274648693
O           0.18385269496741   -0.57602043832952    2.05586028812191
H           0.49263165813455   -1.25813938053189    1.41626930245937
H           0.78528749406226    0.17298612556423    1.92870053128138
H          -1.27765246332130   -0.20655578674685    1.63290375709562
N          -1.38969929716852   -1.46434890932735   -0.89707636487122
H          -0.64193572978535   -2.04825870191105   -0.39966899112286
H          -1.98986998909569   -1.99887448667709   -1.51395995492445
H          -1.91788251672012   -0.91722556299718   -0.18945079236293
H          -0.69129419683497   -0.84664201873329   -1.42183250599749
