    26
        -50.45335453  Gyration_radius:  2.50793096556 Dipole_moment: 8.504
 S           1.07904992801982    1.15930776430323    1.89066261568222
O           1.86363263798761    0.00394081325338    1.38492839374609
O          -0.35538628620496    0.88056048234953    1.63460655673777
O           1.36726211598219    1.49108297444917    3.24127087304484
O           1.45309498517781    2.37258179317655    0.98031924410858
H           1.12115601641107    2.19659326123469    0.07040723453872
O          -0.06382869422177   -2.27986105272443   -1.13523148190948
H           0.29897853481651   -3.05094399734408   -1.57252037878380
O           0.46014060165647    2.01399345608789   -1.46771617996934
H           0.47877343673677    2.87611698330258   -1.88566233518726
O          -2.50371608786325   -1.00963043271010   -1.18311860156688
H          -1.66063925153198   -1.48993735228275   -1.24706001748168
H          -2.93740050064934   -1.09073168486846   -2.03345338808263
O           1.70899033862740   -0.41765683508061   -1.21752173867572
H           0.62825553622135   -1.55012163558583   -1.23895746159176
H           1.34555253454550    0.42147257732230   -1.53788861263297
H           1.91910061565413   -0.25518370659356   -0.26919893730224
O          -1.86136091500592    1.56707753472394   -0.44684991839683
H          -1.46221009813350    1.43821042089841    0.43653145588268
H          -0.48946141422491    1.86281075458473   -1.16589496535103
H          -2.20905943822736    0.69142622963030   -0.69524290293524
N          -0.06217256004988   -1.62557071466184    1.50207936300079
H           0.93586118356820   -1.24052825490646    1.54271536244572
H          -0.22350169443187   -2.04862578696775    0.56697836899534
H          -0.29684187653724   -2.24871122791441    2.26564099959489
H          -0.53426962832178   -0.66767236367614    1.58017647209022
