    26
        -50.45335407  Gyration_radius:  2.50705000864 Dipole_moment: 8.552
 S          -1.64135182362727    0.30009849840858   -1.81715277081437
O          -0.89422458189340    1.31104069735210   -1.03000066031553
O          -1.96728117936404   -0.83112973967795   -0.91097663964241
O          -2.77253799079194    0.82311536927959   -2.49842007649246
O          -0.63207638125978   -0.26160642235466   -2.86931889361301
H           0.20769656867059   -0.48848752806784   -2.40863147949330
O           0.19015007504552   -0.97483224624581    2.34751628617147
H           0.13036438310504   -1.65003388345735    3.02411950776160
O           1.71100353063052   -0.76936159232621   -1.70243151908462
H           2.34689438708449   -0.84068139244186   -2.41568741155599
O           1.70652541620578    1.29536850830095    2.01148648384194
H           1.24181096861355    0.45822629797483    2.18068393731396
H           2.56610778475852    1.22823234330277    2.42934261661284
O           1.72955424921248    1.61398030081548   -0.72635020642625
H           1.82568225477651    0.15065467928970   -1.30764683575360
H           0.77791203072698    1.71618387761388   -0.92697585831404
H           1.78123732822842    1.61258062113721    0.24648483255995
O           0.11223610324000   -2.14171264574277    0.05636988232735
H          -0.71031101944808   -1.79112360484129   -0.35607836012615
H           0.82747123031478   -1.84626095727023   -0.52676466574071
H           0.21978157660854   -1.46747854667621    1.46503634866468
N          -1.76874800422621    0.52658103355166    1.20815079939499
H          -2.11070493705358   -0.20971808954989    0.50921911947865
H          -1.06879015602303    0.09259942415454    1.84119048148984
H          -1.29615890300357    1.14167411222122    0.47114777713145
H          -2.51224293052931    1.00209089524898    1.70568728462211
