    26
        -50.45260137  Gyration_radius:  2.49742687244 Dipole_moment: 5.353
 S           1.41181397276651    1.26618578438342    1.30474047988497
O           0.77049352579166   -0.04633247500975    1.55844175455750
O           0.42486463513033    2.12365424910465    0.60057367166011
O           1.94169461969401    1.87038655799386    2.47772958486201
O           2.57464452094150    0.99969957440804    0.29744802218977
H           2.20333495626619    0.54308688514031   -0.48994084837432
O          -2.50000033606508   -0.37301731591240   -0.27548101566761
H          -3.27890576308380   -0.83719946815601   -0.58287795503409
O           1.59733253535785   -0.10216411130707   -1.92724407802167
H           2.07488334361443    0.28337696140168   -2.66397385758813
O           1.07945506900401   -2.75310443013272   -1.51400269546282
H           1.86145897507240   -3.13002771474465   -1.10738480691418
H           1.30621171257401   -1.83468631136416   -1.74936732083396
O          -0.61088223752991    1.19120329130911   -1.63789477642614
H          -1.34937924292470    0.66112459621574   -1.29914988289577
H          -0.24594259525747    1.67382175240456   -0.86170306251134
H           0.69827388508726    0.34891941687084   -1.91009965447069
O          -0.66046984412254   -2.02729765477190    0.42785121726445
H          -1.81437731132316   -1.08153749902757   -0.05486693168432
H          -0.14515022617322   -2.41259668940875   -0.30970413456676
H          -0.04104313808640   -1.42755780621719    0.88532125600480
N          -1.51818188375176    1.02178169131960    1.79797725230533
H          -0.94657848622929    1.78467160657173    1.32070833677495
H          -2.15125008277178    0.57292886399098    1.10279179927820
H          -0.69224931493757    0.36262823661316    1.96722379776842
H          -1.99005127904224    1.32205202832020    2.64288382790608
