    26
        -50.45296203  Gyration_radius:  2.48621742321 Dipole_moment: 4.149
 S           1.40765546063512    0.89488419996613    0.93794151788476
O           1.95816000725726   -0.20943417037449    0.17468012235852
O           1.57875466213861    2.18163096497412    0.35488206965781
O          -0.08658200365438    0.60518565182444    1.17417963199708
O           1.98129286207012    0.86559655310917    2.35695462006697
H           1.93794201454644   -0.11474751514622    2.60459675683379
H          -0.51269052351590   -0.02224753557476    0.45744899708037
O          -1.15762918791374   -0.90935085907609   -0.52032905348396
H          -1.85129085823045   -0.24872337864897   -0.85736500332838
H          -0.49956123843683   -0.96678734049470   -1.23709143416435
O          -0.03868365356953    2.04423729875116   -1.87716085643311
H           0.52826748089554    2.29568554213508   -1.13247353178032
H           0.35281861190473    1.24571183636847   -2.25310805499916
O          -0.88952705558512   -2.07347606642963    2.03976007539691
H          -1.06562118202604   -1.95447274667763    1.09509172799296
H          -1.29823418580245   -1.32378249845935    2.47848948800556
O           0.96307034282420   -0.61104545995614   -2.21608932714521
H           1.45836715477720   -0.46311811740949   -1.37959371560629
H           1.52231362018890   -1.15182314508609   -2.77606036222386
O           1.75291330766530   -1.66598785493294    2.45684992388298
H           2.05585654916040   -1.66321166822717    1.53938451516733
H           0.80552673694427   -1.92632193883981    2.42273028594229
N          -2.65615557123967    1.04492224579752   -1.37187299611559
H          -3.18023740089530    1.54463800371352   -0.66545935587873
H          -3.23307171851624    0.97355526921346   -2.19997857749378
H          -1.83365423161224    1.60848273947980   -1.60640744359724
