    26
        -50.45147138  Gyration_radius:  2.53217631176 Dipole_moment: 5.409
 S           0.39783131341831    1.50315193155139   -1.66457204814629
O          -0.58042072733255    0.43595522345087   -1.54145474574952
O          -0.13660790771748    2.78848302757151   -1.93431368732234
O           1.22151259950976    1.51093728495748   -0.33205372546451
O           1.46418540323572    1.10507880914137   -2.66622868742725
H           1.93374497923573    0.21344499184064   -2.28755656197833
H           0.60320849596894    1.69657375272408    0.43006994634741
O           0.10333513002305   -0.66240865229213    2.39181705634660
H           0.45367464142893   -0.98989097670311    1.54004890360417
H          -0.76497799221660   -1.09007381715960    2.44738490886077
O          -2.54371520696377    0.65753903253538    0.29557561821099
H          -2.00355591722930    0.60822024515718   -0.51351040916882
H          -2.08379484665376    1.29141696851585    0.85907779568046
O          -2.19853585755631   -1.76809814784609    1.33275168351006
H          -3.04333906482972   -2.20733352186003    1.43024170260587
H          -2.39669092935019   -0.88006358030505    0.94125111529132
O          -0.35500716813520    1.79544844509186    1.70458772107721
H           0.00626436963830    2.40811811204821    2.34730160815333
H          -0.18516573736392    0.86933701868118    2.05933273862395
O           0.22296299014216   -1.65347476387750   -0.14013581243674
H          -0.57793991847523   -2.09554377434254    0.17572983642284
H          -0.10758667692575   -0.90104677270566   -0.67809539165066
N           2.54223991009292   -0.95856282669236   -1.67408913700199
H           1.82376927000002   -1.43400213261183   -1.13049474226313
H           3.26808410375543   -0.64121382045991   -1.04543554347199
H           2.93652472430615   -1.60199206640307   -2.34723015264281
