    26
        -50.46368162  Gyration_radius:  2.55268496867 Dipole_moment: 3.832
 S          -0.13064078634887   -0.69816425071178   -0.82311272209565
O          -0.01815340633181   -1.74456907893531    0.34153812614875
O          -0.93560971275931    0.41032347014787   -0.28014739416123
O           1.24414488429698   -0.25723618312906   -1.04068031121621
O          -0.74052572557879   -1.33370396276703   -1.95857120064422
O           3.86923742121073    0.02815163660629   -0.10451975274005
H           4.59867768634332   -0.44719066960600   -0.50387095845807
H           3.06701517941881   -0.28281049816496   -0.55071349127682
O          -3.20766684483763   -0.80768552306095   -1.23144336018974
H          -2.92606577302767   -0.02501138073438   -0.74466436501817
H          -2.42267514600996   -1.02324433846781   -1.77573546954330
O          -0.05092500341808    0.37773266671192    2.21902504854324
H           0.12547543456886   -0.55498997663282    2.36870342941372
H          -0.54634926542185    0.40359224428827    1.37161976599075
O          -0.27847773547068    3.01245294271461   -0.36687154387594
H          -0.59095836314281    2.08788131003480   -0.45701131570561
H          -1.02915218627021    3.51970329647558   -0.05489146424892
O          -2.38479720428822   -2.78100250348523    0.30881453994940
H          -2.86736379408745   -2.07370940639704   -0.19348898673735
H          -2.36789108176400   -3.54508370895929   -0.27173582325608
H          -0.90986662465108   -2.19256141128501    0.38372910789891
N           1.72887419899067    1.61756780095024    0.69502260037768
H           1.23371027698392    1.23544153496767    1.53592440205167
H           1.55682732934175    0.88998369619168   -0.07018809529333
H           1.24772266325687    2.47909627044385    0.38457995807522
H           2.73543354892900    1.70503605291767    0.81868928604337
