    26
        -50.44831158  Gyration_radius:  2.51305125219 Dipole_moment: 3.978
 S          -2.28795770949212    0.29828891139540   -0.10560113042966
O          -1.67528215766407    1.60009000874722   -0.16347248654035
O          -2.87487428484721   -0.17496227963079   -1.31190927496319
O          -1.20911467699763   -0.72440805473515    0.35918542938353
O          -3.28136019629739    0.26325054301629    1.06937881222229
H          -2.76967528680217    0.66891937384375    1.81984598751385
H          -0.92829136964387   -1.28175322735977   -0.47462338885081
O           1.38927001588102   -0.11435836590965   -2.20962100044937
H           1.54888674671136    0.31168576810045   -3.05288776912438
H           1.27784279192389    0.62510614602786   -1.54486567502313
O          -1.51615031000510    1.49273796288637    2.53358367939065
H          -1.39455952938592    2.02357923374826    1.73378437830934
H          -0.66094841836003    1.07246074426880    2.69869071026243
O          -0.64346531546735   -1.77128596398893   -1.82758281826068
H           0.13015176703741   -1.20755917063099   -2.08138263211566
H          -1.43407145495111   -1.40088357300012   -2.24126041515475
O           0.99991550968750    1.75485436834022   -0.43162253505378
H           1.16766641996785    1.33601993897504    0.43711387712179
H           0.03841372457908    1.89230259001544   -0.45607308216020
O           0.97125642541365    0.16775509112485    1.78682287186389
H           1.72942221017439   -0.37524295154263    1.47536019643289
H           0.20172352759106   -0.28222965880983    1.40928961247229
N           2.67691351050956   -1.39726947015034    0.34012161169532
H           2.39471501771297   -1.10626849556596   -0.59098729295029
H           2.46843153426184   -2.38459832779767    0.42399713260605
H           3.68114150844634   -1.28623115130932    0.40471520183129
