    26
        -50.44948074  Gyration_radius:  2.46765996722 Dipole_moment: 6.208
 S           0.30888094417499    1.67228433955570    1.64234419243485
O          -0.71607420215047    1.08549726583102    0.79060600086397
O          -0.15902176691805    2.12585529053821    2.90133592885384
O           1.44522187733623    0.63030058099310    1.80506621152765
O           1.00817452417500    2.79205227032558    0.87770443048957
H           1.37568975498312    2.34381949541737    0.02962783375048
H           1.12955006664063   -0.32122031434479    1.80503113246026
O           0.70150018364354   -1.84010341838246    1.77434840868142
H           0.64503353391133   -2.17683712560028    2.66978411472815
H          -0.23906240277233   -1.84589181992950    1.38817356801222
O          -1.01446119843923    1.39525850547459   -1.78008611980873
H          -0.93394667726278    1.29820694381360   -0.79827093644043
H          -1.71267840611330    2.03412839519823   -1.92970532600682
O          -0.88641666100010   -1.29911092946370   -2.17924587125858
H          -1.00923413365452   -0.33158235741326   -2.11588956353973
H          -0.67859020590263   -1.48945988664613   -3.09550970202682
O           1.69979472238542    1.56159140156995   -1.21519336628309
H           1.81850912172639    0.60029383820322   -1.02684277403818
H           0.87952108987997    1.61678818894814   -1.72852046270414
O           1.56599299718262   -1.08728929255564   -0.86865988510254
H           0.69791585232005   -1.28616058493986   -1.26153522383177
H           1.55153928783673   -1.45851743276992    0.01906521300817
N          -1.66418581479346   -1.61829779046235    0.71070723058120
H          -1.62776585075646   -1.85295164288201   -0.27551119958542
H          -1.64131351853708   -0.60234561159299    0.77635097391295
H          -2.54457312785739   -1.94630829887184    1.08482520133884
