    26
        -50.45303524  Gyration_radius:  2.49921581088 Dipole_moment: 7.745
 S           0.42153476588650    0.55086427227855   -1.94879371867463
O           0.73607863730161   -0.34527706626404   -0.83019105857835
O           0.35979972868409   -0.13492595660584   -3.20038175714034
O          -1.02115231833801    1.13705246831405   -1.60287458013267
O           1.26472790608052    1.74858603870866   -1.89092620489294
H           0.76998448611538    2.43229765172490   -0.75023642691440
H          -1.60076433575574    0.34870182675059   -1.74523230434097
O           1.65134869997030   -0.70090256342591    2.74385177370300
H           2.58186457908528   -0.48225570488213    2.68016849703591
H           1.51586780182772   -1.46601189473963    2.13131724431577
O           1.14144301060958   -2.46670434529927    0.80975628056616
H           0.20061991502867   -2.66511328006216    0.89034048784746
H           1.19011660939388   -1.82252785310676    0.08361049180399
O          -0.21249434943665    0.58413112023562    1.34860942271490
H           0.13696992346840    0.19527270413512    0.49631805694884
H           0.42031244401133    0.24863051593992    2.02495882904102
O          -1.62940789521180   -1.79688883586083    0.79296837081132
H          -2.53592414739317   -1.87347799591556    1.09431769275287
H          -1.30015195897205   -0.93133701943178    1.09402881274033
O          -1.87182196524936   -1.27697699329749   -1.95630174874367
H          -1.64085067774468   -1.65367155694597   -1.08915001899888
H          -1.08994470504967   -1.33582715110017   -2.52270900096409
N           0.25834659233923    2.86257190456433    0.14606167931849
H          -0.62030845874934    3.25071267440109   -0.18602446228876
H           0.82583792799381    3.56804658390063    0.60465271703508
H           0.04796778403873    2.02503046597119    0.78186093506215
