    26
        -50.45296206  Gyration_radius:  2.48660995123 Dipole_moment: 4.142
 S          -1.32879016373993   -0.56338843357454    1.25480645804091
O          -0.37776788133890   -1.63782848686468    1.03967374976579
O          -1.14363935226078    0.18089625708785    2.45343382396643
O          -1.27308767017670    0.36725645566760    0.02881016048663
O          -2.75151239995926   -1.12413362969642    1.18316429731600
H          -2.71744497043915   -1.74095251802690    0.38192352680350
H          -0.36107351722376    0.34172823315478   -0.47779871935673
O           0.90029060222643    0.33482470631874   -1.23089471973495
H           1.13667872523217    1.31344985038324   -1.09810352021540
H           1.50849770185346   -0.15013401275583   -0.64352327275981
O           2.14511738268653   -0.96168166540737    0.82627195348932
H           1.24030099082335   -1.30536626864986    0.99975922151815
H           2.74881836130889   -1.69436327431689    0.95839309636790
O           1.24389992335060    1.48672052584310    1.99213173988172
H           1.76406207144224    0.70170955538434    1.77881835540115
H           0.38782732348003    1.16255263357431    2.31044965831568
O          -1.25624643213629   -0.81542869283983   -2.64927934271479
H          -0.36536341610562   -0.53309656717519   -2.39605543619177
H          -1.82257047683645   -0.05349586605044   -2.50697238509751
O          -2.13108482731357   -2.58975501758936   -0.80199321027079
H          -1.29945440816744   -2.75114723429247   -0.33741694465052
H          -1.89707962230209   -2.03565151823432   -1.57950734794161
N           1.38541036515979    2.79742040740759   -0.53097245420827
H           1.34677152713779    2.55144365815587    0.46261501821349
H           0.64635875186460    3.46415813386128   -0.71183067403163
H           2.27108144151868    3.25426277870895   -0.70590303241816
