    26
        -50.44932504  Gyration_radius:  2.56697889537 Dipole_moment: 5.021
 S           1.52844267180393   -0.07845907370053    1.73464687404254
O           1.36624673335320    0.85695433629405    0.63923689077515
O           2.49952759969286    0.25373288177207    2.70758017223489
O           0.11014670204761   -0.23684852258266    2.38569626753225
O           1.78749462831691   -1.48360583049130    1.19084294568947
H           1.08626652008205   -1.76525853238413    0.48919901071740
H          -0.31895237331638    0.70367172326554    2.28516214270298
O          -0.15042581929251    0.34701836970690   -1.45778538823289
H           0.44118755556137    0.62743093819257   -0.72639816983331
H           0.36485584515385    0.51023099493387   -2.27897960904084
O          -0.01359839881128   -2.09442244034883   -0.48075685160292
H          -0.11019140494326   -1.25816289511672   -1.00054117646143
H          -0.82195126163845   -2.16368104997549    0.05243413014635
O          -0.84231619937706    2.00070536168495    1.81737072215288
H          -0.07693850197723    2.26086846988186    1.29031131687926
H          -1.53911088348637    1.70780360613911    1.16582107537331
O          -2.00079207017440   -1.62131512832189    1.36987694072565
H          -1.27871786791849   -1.20420370278048    1.87682030749083
H          -2.53411808545486   -2.11406712424590    1.99525068649725
O          -2.38637606596882    0.84785956955843    0.02791822568144
H          -1.73502037253604    0.74060312856407   -0.68704665383813
H          -2.50203995333899   -0.03381005193277    0.41015603086998
N           1.57669956968240    0.76241552279767   -3.52979561448909
H           1.31788102971264    1.41307177769541   -4.26061644458769
H           1.84327728375759   -0.11157193909906   -3.96556194681522
H           2.38852312908828    1.13303961051413   -3.05084186462292
