    26
        -50.46811971  Gyration_radius:  2.53462493832 Dipole_moment: 5.655
 S           0.40549096001621   -0.33326393917373   -0.73526143241554
O           0.77941749274407    0.34633540795446   -2.05416161981124
O           1.52849566663182   -1.14380090383486   -0.30846261462861
O           0.13082534865299    0.72992186508412    0.25494824405938
O          -0.79513446944028   -1.14647433894255   -0.93164250988562
O          -2.93102667686005    0.27429962002657   -1.52283537291128
H          -3.44035162494373   -0.26083147736390   -2.13405120689321
H          -2.18262754522650   -0.29066351887679   -1.22807356188771
O           2.90959074547430   -0.77397634757419    1.88574302484895
H           3.60685226608705   -1.43063805084287    1.91600759360885
H           2.51322407665862   -0.83843502053868    0.98308912378988
O          -0.37533680548801   -2.78561282720986    1.04913622995160
H          -0.67483373300202   -2.25591280455946    0.27064792977641
H           0.45643840762467   -3.16883098136339    0.75729308496705
O          -0.20061903345875    3.29181567991167   -0.42893185289306
H           0.69100280327173    3.61897095388561   -0.55989387515524
H          -0.10817337051385    2.38612519706282   -0.07010750954272
O          -1.11287129187312    1.93556151903144   -2.57033956040424
H           0.01447566535865    0.98355129125549   -2.32950582939878
H          -1.90256797197299    1.45045434446289   -2.24259935331621
H          -0.92724994389412    2.62150509707349   -1.89570678351210
N           0.31026684165625   -0.63994975677908    2.42459255904793
H          -0.16976125560319   -0.34662451370954    3.26818658222844
H          -0.03462457960398   -1.57152374919488    2.04975484159431
H           0.16365980121972    0.04451020824026    1.61012956503815
H           1.34543819651317   -0.69651296398807    2.54204429368670
