    26
        -50.44834337  Gyration_radius:  2.46595946721 Dipole_moment: 8.518
 S          -0.49095931558256    1.00577739342130   -2.03879249147751
O          -1.55159169842065    1.37938403426725   -1.12910681769849
O          -0.66559085021278    1.31334922475229   -3.40887959775316
O           0.84781202791201    1.56587365611670   -1.54969887341333
O          -0.26842476784494   -0.54082587897768   -1.85858779688746
H          -1.11497965024197   -0.90775061133474   -1.45042590334991
H           0.91119035535875    1.61895578904481   -0.51457327317281
O           1.42463866372507   -1.04460131510439    1.52763457282801
H           1.81886941360380   -1.14411919653195    0.60539816389672
H           2.11220919270269   -1.28223968654976    2.15109988523460
O          -1.54535016713594    1.72240775969064    1.55105999216840
H          -1.66509935884748    0.79325086188914    1.79323148325281
H          -1.73597071362106    1.77706683011426    0.59869112159667
O          -2.43917456743318   -1.09288301582056   -0.65216290428011
H          -2.63671836740717   -0.15024359076426   -0.76599897721557
H          -2.13305498049353   -1.19147062481828    0.26930874189562
O           1.01916395960884    1.62202280515912    0.96127732836219
H           0.10587975627190    1.82474532852490    1.28825432544217
H           1.20410692224232    0.70889461941313    1.24779270854471
O          -1.28295078327462   -1.09061891587792    1.83080871856430
H          -1.49541396593674   -1.71010553695283    2.53041849570482
H          -0.31357443054428   -1.12135951316778    1.70846243933184
N           2.42806718541779   -1.06285796974246   -0.90423710298104
H           2.90424099627545   -0.18014050434218   -1.05093272483028
H           1.56309137531579   -1.01468673999567   -1.43796707890368
H           2.99958375852285   -1.79782521236803   -1.30207444487538
