    26
        -50.44871673  Gyration_radius:  2.48153940231 Dipole_moment: 4.375
 S           2.04474895550365    0.32302169678642   -0.59101940776630
O           1.15074666988706    1.45994981020173   -0.51109874322626
O           3.39225953361269    0.56407932083527   -0.22088573098439
O           1.43196814155970   -0.79998462533929    0.32426295632687
O           1.94139666781019   -0.33212530447146   -1.95485661056902
H           0.92680672265070   -0.53563302938850   -2.10911573810895
H           1.30254118890716   -0.46300589749478    1.24390079265888
O          -0.89565868213846    1.25981088939879    1.16858852478330
H          -0.17192519502993    1.45992366171600    0.53892051512064
H          -0.45344363289370    1.02915404145605    1.99427809832516
O          -0.51886341621462   -0.70144370867733   -2.21656621992923
H          -0.82695626586941    0.23351925635505   -2.36055772616993
H          -0.88765515953180   -0.96589368024424   -1.35274321943934
O          -0.35209389862480   -2.46069130573682    2.04343697460899
H          -0.95269100553659   -2.04419923293101    1.39261030833931
H           0.34906439952256   -2.85102376421429    1.51589756882047
O          -1.76318099093509   -1.01741524198670    0.22206398318237
H          -2.72046528354850   -1.00831257723309    0.17777903052347
H          -1.48619404428944   -0.12613343297270    0.57754167021253
O           0.82963230953229   -0.24442036622002    2.82582715005886
H           1.53369662039452   -0.39875447502286    3.45787481492143
H           0.31692974447821   -1.09165933522354    2.74473694440136
N          -1.08504282031153    1.91232692960627   -2.28475546646446
H          -0.99623281133003    2.45049459741127   -3.13692392793999
H          -0.24413263039349    2.06218204790168   -1.73014969059874
H          -1.86525509720819    2.28623370544726   -1.75904684105678
