    26
        -50.46368146  Gyration_radius:  2.55283812049 Dipole_moment: 3.833
 S          -0.22944805321665   -1.06252048015388    0.03144789147698
O           0.25361822659453   -0.98320528621008   -1.45995237475646
O          -0.99912923076276   -2.26365076111162    0.20477417619740
O           1.00505240194290   -1.01569395301185    0.80960373232884
O          -1.01425463590579    0.16416645233783    0.25702945960419
O          -3.28814465611082   -1.18385660484267   -0.49269057022790
H          -2.62351602691737   -1.78286372472954   -0.09469138765030
H          -2.99570639251048   -0.31231810051728   -0.20334280298943
O           3.72270563293373   -0.36166377978091    1.00212081675200
H           2.88229022461031   -0.83202406972408    0.89335089426104
H           4.39432710440866   -1.03598069150520    1.11031159344630
O          -0.69024678681038    1.88024843479378    2.29631777547287
H          -0.90870174260518    1.19072543104933    1.63483649041923
H          -1.40391619526506    2.51876675325441    2.26302911623666
O           0.39774646019244    1.83805397223658   -1.23766489802443
H          -0.27210408149867    1.29648768172434   -0.76629398914637
H           0.70649313716210    1.27428983429602   -1.95205493971085
O          -1.93006400679720   -1.54501312666423   -2.72146364962520
H          -2.58773484095452   -1.36570353499380   -1.99978267353864
H          -0.55083067507012   -1.19664151995546   -2.01226794265821
H          -1.95587284625973   -2.49355489966623   -2.86555601384055
N           1.64623547131915    1.49038031867531    1.07492418880275
H           1.39559701004359    1.85589690880643    0.12525863958047
H           2.63869573575745    1.55968173808886    1.29021791559928
H           1.01400075118722    1.91432328540808    1.77553313542411
H           1.39290799453870    0.45166972224441    1.03700540663703
