    26
        -50.46800652  Gyration_radius:  2.46386114338 Dipole_moment: 6.696
 S           0.08194624506546    0.85996526308872    0.84927812160883
O          -0.93025819730571   -0.12254256252098    1.21255752914260
O           1.42518488409372    0.28639700454680    1.00447757596514
O          -0.10831163233428    1.34663379244653   -0.51314892493562
O           0.00216854511752    2.05301898667678    1.82033948040725
H          -0.73028866927943    2.61777331071691    1.43379556257672
H          -0.00754516527248    0.31513462904645   -1.85485773589367
O           1.70385133008509   -2.37568457093799    0.92972248937503
H           1.55384651994544   -1.42917003330096    1.13689879679021
H           1.60367338345237   -2.84707890969934    1.75796304318569
O          -3.32854541624511    0.94584117419043    0.83500541570192
H          -3.75946071782717    0.39633090459514    0.17805060214728
H          -2.49726500902884    0.48497307183342    1.07345266012825
O          -1.84662461363843    3.15586666426919    0.43479992806698
H          -2.59373863955911    2.54857711483961    0.61009589222659
H          -1.35687334697081    2.75275545511497   -0.29860082662406
O           0.23688072013267   -0.48867711524472   -2.36659712145784
H           1.59252488753236   -0.61515820808670   -1.83976242137881
H          -0.22508940470286   -1.21727760385823   -1.87958358413804
O          -0.66720434154391   -2.13105660018508   -0.52212558791512
H          -0.92050557319408   -1.44081614410684    0.12304459139635
H           0.12137141631118   -2.53762510470673   -0.13203147126225
N           2.49110471231595   -0.63911925903114   -1.18412303757301
H           2.67726932413294   -1.59539317206075   -0.88096194513505
H           2.17454801764187   -0.10844572731755   -0.31699615748669
H           3.30734073104447   -0.21522235029118   -1.61069290489585
