    26
        -50.45378252  Gyration_radius:  2.41663751777 Dipole_moment: 6.875
 S          -1.54287611149795   -1.41377847738284    0.16585045448192
O          -0.84922177063295   -1.47636252364658    1.46746663274962
O          -2.83790180918445   -0.79916730687128    0.22402212020769
O          -0.60446177260578   -0.45502382749149   -0.70116771681255
O          -1.44267161012856   -2.69482963224881   -0.51937580450613
H           0.13140179920112   -2.79932566445449   -0.44146006478864
H          -1.15987367058826    0.33315698809498   -0.94257586806701
O          -0.38833864067411    2.66645286150144    0.70604662660860
H          -0.22294772294351    3.44839584447661    1.23380242866776
H          -0.00241786049260    1.90009579371102    1.21255911521945
O          -2.24191661652795    1.52192183313511   -0.99221338877722
H          -2.82862832966777    0.89411220069255   -0.53473960975493
H          -1.85245872097532    2.09519713300146   -0.31225764905098
O           0.75979503833778    0.60155537232483    1.83820553173721
H           0.08801546728659   -0.11225488641094    1.83249195793437
H           1.40857105508258    0.34521021399701    1.16726238128758
O           0.96469407810819    1.81293565154399   -1.53483044183846
H           0.51249465587364    2.23265087853671   -0.77750000335419
H           0.26369166493848    1.55348165892613   -2.13654543388285
O           2.29870859597395   -0.22052172425418   -0.46035801818771
H           3.19714643993079   -0.01966628056198   -0.72717104813585
H           1.72795017501761    0.45752363521181   -0.90691981472405
N           1.00926059359238   -2.56331690128089    0.12590976971794
H           1.60205110567096   -3.36149868868960    0.32677296312689
H           0.47738563985524   -2.18424322602602    0.97073857524262
H           1.53254831705984   -1.76270091581185   -0.28401370509539
