    26
        -50.45147150  Gyration_radius:  2.53212654742 Dipole_moment: 5.411
 S          -0.66749221929161    1.25961316909561   -1.77687670907166
O          -1.40316676753272    0.71217970012929   -0.64986129049656
O          -0.78797012194453    2.66081788906226   -1.95721373141522
O           0.83115257231657    0.85098319837146   -1.57406395408295
O          -1.01375728136618    0.48822905296099   -3.03536142495817
H          -0.72567306216638   -0.53500929686753   -2.86446792874395
H           1.16289012810226    1.24819278872246   -0.71965573960886
O          -0.92325737815057    1.67645434039315    1.82333415531480
H          -0.04428450108875    2.02324547569751    1.62826096385129
H          -1.29269828218542    1.43536365815264    0.95484943785763
O          -0.48298460985798   -1.58218683885376    0.27866564112625
H          -0.78931868875523   -1.65030266761429    1.19407058018588
H          -0.86300775463237   -0.73631901640780   -0.04542551399458
O          -0.63067792851178   -0.70364936555831    2.97504291451242
H          -0.78599811970586    0.19912689067824    2.59801284993344
H          -1.12627384553226   -0.73616465602666    3.79323316125271
O           1.69490046451053    1.68972620357435    0.72001100756984
H           2.57865384021832    2.05478047908500    0.65165151721780
H           1.79206690602994    0.76543371822602    1.10593965879987
O           1.75609044455758   -0.75353666274893    1.58511880450743
H           1.21090298026816   -0.76512261527379    2.38693964274959
H           1.17010654148942   -1.16131581962961    0.91748047368974
N          -0.25889791459439   -1.88071028739565   -2.56349700595099
H          -0.76978455867145   -2.60017661417721   -3.05732209144978
H          -0.35219709466803   -2.02624275939054   -1.55958746033576
H           0.72067624970306   -1.93340996415262   -2.80927795826066
