    26
        -50.47273120  Gyration_radius:  2.43959366778 Dipole_moment: 2.890
 S           0.43066891659298    0.85434222007699    0.02444795400145
O           1.21492496778400    0.92912245947475   -1.20111080747642
O          -0.82241432215234    1.59575103790014   -0.09540013417283
O           0.19851635098340   -0.53711844821579    0.40159735967666
O           1.21731161182759    1.52964744055452    1.17830198552930
H           1.87504071458188    0.83058601603365    1.47660136218642
H          -1.27589956859717   -1.31815123082926    0.91544218104052
O          -0.17406061864900   -0.96236771942716   -2.44385590838763
H           0.17819619719304   -1.73317829872670   -1.99124754167322
H           0.38065028091543   -0.21436132333842   -2.13261591193631
O          -1.98240416178077    1.03371592542646    2.25133513735738
H          -1.36423778323008    1.23733836641126    2.95472730968469
H          -1.57456402349059    1.37077892545148    1.43058510402924
O          -2.24324190379363   -1.38652798997104    1.04537271520438
H          -2.53722496723151   -0.76112281261769   -0.36556759504556
H          -2.42892992550320   -0.66030005366186    1.66957297960123
O           2.62971051932882   -0.56291305652669    1.59632004600652
H           1.81586771543801   -1.02412013117296    1.34474062476162
H           3.18412137881085   -0.56954965994375    0.78765791959358
O           3.56556845472270   -0.25152860701709   -0.89730188798751
H           4.25479050805796    0.36201245464074   -1.15701323863589
H           2.71441591153456    0.18871553945076   -1.11070203575057
N          -2.39964681936184   -0.14554813148036   -1.23619160306379
H          -3.26123037718480    0.06088440766551   -1.72911006725396
H          -1.66913523520421   -0.58545469401506   -1.85500038305904
H          -1.92679381159159    0.71934734384438   -0.86158554423500
