    26
        -50.44012128  Gyration_radius:  2.60201427828 Dipole_moment: 6.345
 S          -0.46167756966410   -1.08363532290177   -1.95297373386868
O          -0.10658553276078   -1.33714385925616   -0.57197123273319
O          -0.78491723296986   -2.22136568033572   -2.72933984504785
O          -1.60691099149036   -0.02755650131829   -1.95349262975276
O           0.67935437691997   -0.28969670324553   -2.61509125939714
H           0.71322388044959    0.57651337595027   -2.11477216539199
H          -2.33442103676842   -0.24864432898541   -1.27176546178710
O           0.66940702243892    1.85530903552138    1.41295954397827
H           0.93109462166379    2.72228004015681    1.72790815370808
H           1.47673098097449    1.28580704805787    1.48336629019913
O           2.91774543210971    0.45657354979047    1.42920689312698
H           3.56798225617841    0.85281314362509    0.84599208723461
H           2.73669938553894   -0.43110570953824    1.04638976042409
O           2.38320715996927   -1.83801729635419    0.17628169490145
H           1.47647205156404   -1.66771149140812   -0.15376773351806
H           2.36832073643494   -2.71884940663775    0.55368837453896
O          -3.34118105524743   -0.34811508711739   -0.13057261879433
H          -2.71003233374665   -0.31482101217689    0.65921810714366
H          -3.88889112696610    0.43846605652981   -0.08633013950432
O           0.32356234066454    1.86124194347083   -1.25396244080186
H           0.44035939673170    1.81499960551631   -0.27711703789855
H          -0.62093610495467    1.78083615125704   -1.41988834921996
N          -1.46376480183601   -0.24290934914191    1.69307852183769
H          -0.98351573372297    0.63853959561346    1.84400127705523
H          -0.86297384698276   -0.78965974251166    1.07749364158724
H          -1.51835226446009   -0.72414804451198    2.58146031194388
