    26
        -50.44242829  Gyration_radius:  2.56088241017 Dipole_moment: 3.053
 S           1.76701063585321   -0.60507852803818   -1.40834272551842
O           1.34358598980263    0.73829199138941   -1.72039369896926
O           3.15583905591999   -0.87177387154207   -1.49119704866379
O           1.23449020826554   -0.92244225867366    0.03310126262187
O           0.97431818074021   -1.61359512824581   -2.24970764216153
H           0.00019951990156   -1.38902216397429   -2.08637627132719
H           1.19125635731483   -0.06162669367322    0.53519169813466
O          -0.92024309545305    1.81502467330891   -2.57372908603685
H          -0.74178899481932    2.58280386824789   -3.11765458851108
H          -0.04394532664032    1.45249581036153   -2.31999839365297
O          -1.41670897187555    1.10644593895917    0.06723394498090
H          -1.42284921786077    1.66231949043649   -0.72736258018426
H          -0.58935261928513    1.30602272813697    0.52611989190027
O          -1.41361968494059   -0.85504151538489   -1.76930232848257
H          -1.60098215582498   -0.23875876306386   -2.48774647328507
H          -1.41783770750412   -0.28363609373163   -0.96715725394391
O           1.06792457778248    1.25651000188942    1.42618557263428
H           0.86345111350267    0.81666984761522    2.30185032457660
H           1.89475218291479    1.73182604502654    1.52179434979828
O           0.49482620532753   -0.21141830859441    3.49709026110530
H          -0.23246620089502   -0.67865646665661    2.99727681148736
H           1.17131503142422   -0.87217960886174    3.65613351874879
N          -1.20979297778260   -1.39209892966422    1.82008209283718
H          -1.73499292958574   -0.62178691119610    1.42061996150176
H          -1.85817538521241   -2.14625095389914    2.00679846334263
H          -0.55621377106596   -1.70504421015316    1.10948992708088
