    26
        -50.44012101  Gyration_radius:  2.60233007605 Dipole_moment: 6.347
 S           1.37992324445353   -1.80014155783674   -0.24926756846784
O           0.70295158939871   -0.77591682421455   -1.01740756473757
O           2.28005693872497   -2.62140021171466   -0.96814163658697
O           2.06419242757838   -1.09890641240688    0.96193396578007
O           0.31981330908500   -2.66097186282897    0.46193952014878
H          -0.14798151915126   -2.03032146523942    1.08252930442606
H           2.56843175539913   -0.25577476305255    0.68352996221516
O          -1.60487407044637   -1.22570761695455   -2.23485129674199
H          -0.74252793253953   -1.11513231931189   -1.78299542115535
H          -1.43511449494282   -1.09476177528653   -3.16901578940850
O          -1.63304007266308    1.41908785284899    1.09415432529274
H          -2.19737757020077    1.03060285891828    0.37882680783000
H          -2.24068601819352    1.79631457687197    1.73275479561541
O          -3.20673668772095    0.22059387070514   -0.66602205424240
H          -3.73536734819829   -0.45835381086354   -0.24232351680618
H          -2.64146795347408   -0.25982387716813   -1.31201510385705
O           3.13770197105327    1.13493410637611    0.42114708014599
H           3.36058150351362    1.57553236082715    1.24385993030660
H           2.31315736693636    1.59175283360268    0.05444837198347
O          -0.48554121273249   -0.81411135194383    2.05793481688240
H          -0.88314254529864   -0.00294704309794    1.66560781633456
H           0.43581223148489   -0.60514464236830    2.24083478429035
N           0.84901592797652    2.02941438351624   -0.48673236505561
H           0.76870111178673    2.72771548860813   -1.21454776455983
H           0.09148746215735    2.17656648161323    0.17271483398952
H           0.68203057600627    1.11690073037115   -0.90889622362496
