    26
        -50.46379230  Gyration_radius:  2.43850965168 Dipole_moment: 8.456
 S          -0.15907076849015    1.32504755040453   -0.90129241482627
O          -0.17081041263330    2.17434299401518    0.26341212269384
O           1.14637805482064    0.76856115650492   -1.22952774569264
O          -1.15640037892724    0.23993221978494   -0.78929079758749
O          -0.59046547332300    2.16143641321432   -2.15131200150533
H          -1.44285048546028    2.55091055892168   -1.86768255115219
H          -0.53486605686982   -1.07597841401049   -1.41110751403393
O           0.59433336258449    0.85576933219991    2.54379525180849
H           0.35699021882138    1.52195623237247    1.87880009828395
H          -0.12282284779029    0.19583718741413    2.50399410206326
O          -1.15857819768227   -1.04081438081704    1.62879682417757
H          -0.53869433804490   -1.75438110951777    1.43284134938493
H          -1.28051065561226   -0.55192077960290    0.79822136895524
O           2.29472244899956   -0.39335915724301    0.96857640185183
H           1.81627942961710    0.07271174977043    1.70236882606103
H           2.08912796532507    0.13173163703607    0.17765056989069
O          -2.64928870907790    2.70888714361189   -0.59485120962075
H          -1.90577136050319    2.76809805136082    0.02777759238896
H          -3.02844979683435    1.83536700390073   -0.46230928517382
O           1.06256575767842   -2.60994623759874    0.62777130294711
H           1.58792505150655   -1.76134020583067    0.82894770803429
H           1.60975583988838   -3.33744595867755    0.92551680755906
N           0.33268867025081   -1.62191377724076   -1.69863912098423
H           0.99030143832938   -0.80519375632725   -1.76661113156971
H           0.22857404222139   -2.14387113888172   -2.56127918114695
H           0.62893720118558   -2.21442430477986   -0.87456737283151
