    26
        -50.45185166  Gyration_radius:  2.50141889804 Dipole_moment: 4.425
 S          -1.25148051884746   -0.31953168026558   -1.98865170412060
O          -1.43582937971405   -0.85233684798550   -0.64462075678679
O          -2.25105047320301   -0.66777301013954   -2.92694222931289
O          -1.12935582572675    1.21594116489380   -1.86373837391215
O           0.13066042021016   -0.76510144581625   -2.48812419769159
H           0.89865958175597   -0.10545863341251   -2.13263944780622
H          -0.77058476983185    1.45080432120559   -0.93678096700386
O           1.59513481216718   -0.11741051843464    1.07300463585336
H           1.30166072011388   -0.17786055517476    2.00086674520839
H           1.36366370867366   -0.99222224940863    0.69014900703070
O          -0.23375621307563    1.71771016432980    0.45556380286965
H          -0.97867452824012    1.48425653995913    1.02659425319553
H           0.47490005824522    1.05935998194137    0.67675492064765
O          -2.12683138809373    0.11341449291253    1.71726403876967
H          -1.91029888029177   -0.32218404593428    0.86333271357506
H          -3.01803425096387   -0.16265124131902    1.93558865814256
O           0.09684190635162   -0.12450276949176    3.34320821447247
H           0.02257119980893    0.59345325131595    3.97306070938908
H          -0.73669899975118   -0.14239909436075    2.83877149187630
O           0.71916976699827   -2.34096033413707   -0.15558481480615
H          -0.16030442482652   -1.93477393220596   -0.27781177299847
H           1.03799418271429   -2.52570249710726   -1.04156849451053
N           1.91790032196486    0.81425718195421   -1.63307175050653
H           2.12717930946718    0.57229286314133   -0.66689800906076
H           1.54865356006443    1.75647011801088   -1.65857512060070
H           2.76791008399458    0.77290876547976   -2.17915155182073
