    26
        -50.46379233  Gyration_radius:  2.43847286275 Dipole_moment: 8.454
 S          -1.43670465573586   -0.57592349362058   -0.44550263086464
O          -2.05729427370507   -0.09509741381656    0.76353844152716
O          -1.10331847045554    0.46510232346185   -1.40822433223098
O          -0.24043075717552   -1.39274040130190   -0.15150689509155
O          -2.42675349273472   -1.53635175856632   -1.18429791240653
H          -2.65699514819351   -2.18614868379129   -0.48900239540240
H           0.86275665207362   -1.07369066689976   -1.24041677972334
O          -2.44286292068952   -2.71159364006198    1.17773658429711
H          -1.52114730281479   -2.96903324472262    1.27004333170234
H          -2.47716954354915   -1.77194320073611    1.42204512390821
O           0.28860370949264    2.49628212559619   -0.20922469615441
H          -0.34096160554341    1.94841422444545   -0.70634122957360
H           0.01959952091116    2.37833278482960    0.73858819275859
O           2.53766424000502    1.30032382323463   -0.45102693690111
H           1.68290724581189    1.83766028213873   -0.31914098671261
H           3.23767130061160    1.94194476034205   -0.57603290478326
O          -0.45268107337640    1.63265668475393    2.16516820852227
H          -1.19463701143700    1.10898206106270    1.82223177286303
H           0.26867629043405    0.98910514041216    2.29565301508414
O           1.44139196942734   -0.29327614149518    1.70617614789371
H           0.83029447858016   -0.78239423017292    1.13087659579308
H           2.03145899083823    0.19559342351871    1.11909712190883
N           1.24424064099108   -0.40741411249031   -1.97792830072251
H           1.93486344404692    0.23789615598857   -1.50403370136871
H           0.35739029740256    0.13049140029374   -2.14607396458814
H           1.61343745491084   -0.86717822230421   -2.80240087978098
