    26
        -50.45730356  Gyration_radius:  2.37502350872 Dipole_moment: 9.258
 S          -0.40355726672405   -1.13405342460706    1.13940513936470
O           0.53192129702059   -0.03848218156548    1.46455840514159
O          -1.16632581681338   -1.56418462687174    2.26612318954336
O          -1.40542817286500   -0.54622487009473    0.08117571661736
O           0.33617355562585   -2.19629501651822    0.42934581760740
H           1.71449224157074   -1.65439801859641    0.03731379456307
H          -1.20051416127195   -0.92489403396655   -0.81353304334029
O          -1.83932074444635    1.06475684471472    2.53289625114378
H          -1.81432701714898    0.09405966777087    2.51127604596470
H          -0.93605786045142    1.32644792936992    2.72886674323711
O          -0.48022109537140   -1.63247428809982   -2.08850476302160
H           0.19763144044980   -0.96945728042782   -2.30906085529774
H          -0.09005929815566   -2.23880611277847   -1.44131395512672
O          -2.34918462159423    2.10572838689067    0.03953571433422
H          -2.67667460992291    1.29868690116062   -0.36579130298692
H          -2.27890675794810    1.88352845769361    0.98953712214626
O           1.37660738166661    0.41005083360471   -2.17718566987551
H           1.62285985246053    0.94616228774878   -2.93193729769791
H           0.88532207000440    1.03249695031864   -1.54340336656342
O           0.27779012800561    1.87560151995317   -0.38641942795205
H          -0.68028198045868    2.10884076424346   -0.39098163274879
H           0.35825688439701    1.28244154982070    0.38455436233833
N           2.41243690934689   -0.83782685232636   -0.04362294941277
H           1.94999551139145   -0.24117874887982    0.69782441097491
H           2.28137078782222   -0.36964260390667   -0.96603001087063
H           3.37600134340065   -1.08088405464227    0.15537156189244
