    26
        -50.46368138  Gyration_radius:  2.55278869576 Dipole_moment: 3.836
 S           1.08557202136699    0.04811670573952   -0.05022177620058
O           0.82438512545402   -0.55396480202916   -1.47617073682301
O           2.40494613310179    0.61690399818564   -0.02288815736749
O           0.02153321353712    1.04662132844321    0.15640888136010
O           0.89316790425446   -1.08111357691693    0.85504779275939
O          -1.57777948986569    1.21311158295193    2.30669014108040
H          -2.09470545320366    2.01635222267671    2.23048156976192
H          -0.90959084571422    1.24814613071120    1.59049682333756
O          -0.17924651385120   -3.61817943697697    1.36818737144484
H           0.38235704408466   -4.38149764304684    1.50764166506639
H           0.41289013855118   -2.88348267765327    1.14705442357751
O           1.66496283938957    2.97960124220901   -0.89640741709380
H           0.77996775924131    2.86507006623512   -0.53234570337431
H           2.17556249481364    2.26491451467264   -0.46367817425905
O          -1.96076865585851   -0.19734623098075   -1.08931498987591
H          -1.28510672440108    0.41241020067728   -0.72059844785402
H          -1.50725002872398   -0.66275851589394   -1.79728241747640
O           1.64468457277509    1.37538872333362   -2.98651130429065
H           1.12681033055165    0.14741756935987   -2.11980723964434
H           1.62492470499250    2.11902892686994   -2.32916968614262
H           2.57253565319945    1.22736616799508   -3.18227231682965
N          -1.65911246322811   -1.26122262711013    1.32008647517217
H          -1.87369028384741   -2.20240690889365    1.64292121189971
H          -2.04481122457440   -1.04432811978741    0.37016089643399
H          -1.92394336131527   -0.50214687573126    1.97135176910499
H          -0.59829485064289   -1.19200194494623    1.20013932609647
