    26
        -50.45476396  Gyration_radius:  2.4735187794 Dipole_moment: 6.123
 S          -1.96156040304350   -0.27401283301370   -1.24774363986223
O          -1.71475770419316    1.15715465813554   -0.96546223984260
O          -2.86672103909348   -0.50848626869460   -2.31681535098340
O          -0.64386211862003   -0.93983531903859   -1.43441466713100
O          -2.55896634211568   -0.89602626175106    0.05562398467431
H          -1.90722895225781   -0.78496384629394    0.78246174664199
H           0.37740493366309    0.13561939842057   -1.78529722974694
O           1.84003589798360    1.58726415796549    0.56675159971381
H           0.91057622390434    1.75691454867033    0.92001234717054
H           2.40040906608852    2.26068563137107    0.95341090187704
O          -0.61440595507734    1.92316393301853    1.31865326283562
H          -0.80948789961400    1.16287771709873    1.88609524982132
H          -1.13447226673169    1.75455736345647    0.50175665068078
O           1.28320752091416   -2.58404803109521   -0.67487757212875
H           0.53167138452869   -2.05112254200311   -1.00688119963155
H           0.97060571010006   -3.48872778341097   -0.63511101400433
O           1.61384419419755   -1.05732522469694    1.51703460308883
H           1.88841214161191   -0.19327635692598    1.17437123299275
H           1.61676216526639   -1.66671698549130    0.74985699509077
O          -0.88596870561377   -0.68166896870655    2.11113823739046
H           0.07924526943748   -0.87052960597841    1.90884865118946
H          -1.15026677027394   -1.30541251860520    2.78848050716185
N           0.67332257201744    1.17030051010477   -1.82131036577825
H           1.02619438855800    1.46453385793511   -2.72412909389737
H           1.32520129875570    1.37912084952390   -1.03662114320650
H          -0.28919461039315    1.54995992001004   -1.58583242412473
