    26
        -50.44359067  Gyration_radius:  2.68398812146 Dipole_moment: 6.820
 S          -2.06244346491574   -0.85137945251932    1.79094792075752
O          -2.36225215686869   -0.97695447522084    0.38310560939509
O          -2.53769821010293   -1.87961070496555    2.64186144858722
O          -0.50476564999535   -0.72245010425518    1.92748579283698
O          -2.49145544140744    0.53218928912329    2.29020145515020
H          -2.22685091739992    1.14966037676100    1.53365121252302
H          -0.02552748988222   -1.47568266875339    1.49390206875402
O           0.67565324752122    0.95766992435298   -0.58299373482392
H           0.33269367014245    0.10457837006208   -0.94813212830332
H           0.99345555964744    1.46487607228991   -1.36308040818891
O          -1.80457256319429    1.68155328743412    0.12552289411802
H          -2.23293496732990    0.93941491895022   -0.32102758399345
H          -0.83993618920718    1.55207577178530   -0.03578016636126
O          -0.35132398416282   -1.36656679614617   -1.35309988779879
H          -1.18677474398234   -1.31391408297642   -0.85162198811321
H           0.18097722001041   -2.02639011125449   -0.89353136822820
O           1.09412143562003   -2.46659100841834    0.81036212663462
H           1.40948314133822   -3.14144365160302    1.41387158343226
H           1.74181312147395   -1.70930654094036    0.85351229830382
O           2.37351149497558   -0.20264716786666    1.12148484217311
H           2.03916033196911    0.06959628530448    1.97922990802035
H           1.84217486697042    0.31262587535124    0.47060256677073
N           1.42964805696920    2.23166029472873   -2.88190083662543
H           0.91313606468560    3.09261253627744   -3.01133701667470
H           1.18387197716642    1.60212303803260   -3.63610257961761
H           2.41683556996840    2.44230070446153   -2.95713401872291
