    26
        -50.45037545  Gyration_radius:  2.6423424667 Dipole_moment: 3.659
 S          -1.13629250121853   -0.56422669581574   -0.48489634198422
O          -0.05027062875642   -0.62884351039632   -1.43391942928669
O          -1.01099513131327   -1.43947642458222    0.63365938825479
O          -1.29114727846670    0.90315132937030   -0.01621318501911
O          -2.46480105137575   -0.80674140052019   -1.19770835291414
H          -2.62641803267522    0.01275620801380   -1.77968496241901
H          -0.61953400779596    1.13609814970039    0.73159495216618
O          -2.64240869916739    1.36416330106929   -2.50440006979476
H          -1.76750074712341    1.38872477108318   -2.96619264840214
H          -2.57855285083711    1.99849786583132   -1.78494573551197
O          -0.16900262463165    1.13178043153864   -3.39677718403248
H          -0.00151276614245    0.67090770391371   -4.22103129993158
H           0.00760040560676    0.48541705264737   -2.67918717756794
O           0.02105449400808   -0.78692782204221    3.05774946643733
H          -0.51979195874705   -1.17977611106309    2.35297237224507
H           0.88563836420007   -1.25682094952021    2.98508563524399
O           0.30182836396835    1.44369777624361    1.85730761902615
H          -0.07608798856078    2.12947757728062    2.41219218172290
H           0.25113994391663    0.57986477453654    2.40455262940309
O           2.22608489320932   -2.06576779830298    2.27981066734622
H           2.37359946674676   -1.41519950786186    1.54753674413586
H           1.87973370874628   -2.85584534185918    1.86116223229239
N           2.30150521315905   -0.25809191142792    0.27354108191381
H           2.02012173294733    0.61265432969757    0.70942317274572
H           1.55638544646878   -0.52714190580942   -0.36346288296521
H           3.12962422385210   -0.07233190151102   -0.27816887315532
