    26
        -50.44384076  Gyration_radius:  2.50295768132 Dipole_moment: 4.426
 S          -1.96613164798958   -0.09200913299295   -1.00249125751422
O          -0.64722608184474   -0.64278318196804   -1.14162145631839
O          -3.02841549017491   -1.03095423109013   -0.87896370679755
O          -1.95876735967006    0.83040571724075    0.27760134451632
O          -2.22781928910485    0.92002085779267   -2.11678903720743
H          -1.40795831538525    1.51269916958692   -2.12919359143493
H          -2.19018381345829    0.19321210377840    1.02990788944867
O           0.25363331797744   -1.60092264647369    1.17284344021207
H           1.19408661389991   -1.83760144867198    1.01971512837109
H          -0.05416956849896   -1.36434275024181    0.27504001924615
O           1.99706121836100    1.27645078978063   -0.62384940182440
H           2.68542073946587    1.92905512381639   -0.48260206981302
H           1.52380140530568    1.17602243580528    0.24287400771653
O          -2.36256794406155   -1.14709374946453    1.82753159662837
H          -2.84751833118352   -1.60682188781900    1.12983885420744
H          -1.46374361812597   -1.52178318158217    1.84600439143892
O          -0.14784292721433    2.37060350233416   -1.80848810990735
H          -0.38750561406012    2.91585264864176   -1.05480171238746
H           0.63498042697882    1.83737610060873   -1.52819528742611
O           0.56348478687183    1.04262940745578    1.57960637878239
H           0.53124288419944    0.06284654353947    1.64797080586517
H          -0.32507541986069    1.29421354637999    1.30319079719736
N           2.72406059066616   -1.68355675768887    0.05187884040112
H           3.65809589314480   -1.62376980063337    0.43794100269635
H           2.52177760398628   -0.80426630214809   -0.41699822659812
H           2.72727993974125   -2.40548287596780   -0.65795064951051
