    26
        -50.44384051  Gyration_radius:  2.50321955213 Dipole_moment: 4.436
 S          -0.23355699695947    0.03884684730644   -2.19645417201389
O          -0.07395370087573    0.95771567685715   -1.10448512073805
O           0.73811687796643    0.12097707250327   -3.23306510580275
O          -0.20358265064437   -1.41904654100959   -1.59381577792946
O          -1.65747065049137    0.12277794548547   -2.74398627416033
H          -2.25438733325115    0.07816653496236   -1.92841240176855
H           0.78124017649817   -1.65466847363785   -1.59346464676641
O          -2.92901856950111   -0.19808502751034   -0.55148693568211
H          -2.45528112468170    0.21156387008628    0.21243211441685
H          -2.88080678860558   -1.14861823863402   -0.42125311597476
O           1.92616460797097    0.22796138940650    0.49351656291285
H           1.25102067985672    0.60764915411188   -0.10376288772683
H           1.88298442686565    0.82621581450082    1.27082021406351
O          -1.67379681066496    0.41044471963599    1.74062020813878
H          -2.20674930606682    0.17185597291342    2.50138174336268
H          -1.00821477401720   -0.31699954402403    1.62542769977004
O           2.34055370373831   -1.47818884515537   -1.60389745747695
H           2.51642923701757   -0.93285199116225   -0.81637533536116
H           2.36002774540447   -0.88778100649812   -2.36833701878518
O           0.03509045764412   -1.53708268107669    1.24034873525144
H           0.85410583853768   -1.00706652192416    1.12187116700535
H          -0.19816999754483   -1.82288794930482    0.34979069436706
N           0.96016569761696    1.98220532040046    2.32558048635455
H           0.01640642403637    1.71172219888858    2.06087904195924
H           1.10863130767954    2.92201143962936    1.97955626548713
H           1.00405154248984    2.01316287324979    3.33657130707472
