    26
        -50.45085800  Gyration_radius:  2.55500294773 Dipole_moment: 7.138
 S          -0.94387140106120   -1.24201512756150    2.00475374393211
O          -0.48971077974217   -1.12360643705929    0.63110811805570
O          -1.52869891914929   -2.47222803375464    2.37400625148801
O           0.28586348579910   -0.96164972272566    2.91780046378608
O          -1.91057619715772   -0.08208167097447    2.28982091349444
H          -1.50121799637572    0.77805963108911    1.94308828319604
H           0.84668111228521   -0.23469674673805    2.54161381152553
O          -0.70255858568311    1.98460113964174    1.41319430032182
H           0.21221557396707    1.89183028055157    1.71077010480370
H          -0.67101944854796    1.98356798669351    0.42970009806356
O          -1.63029784725494   -0.40376198862980   -1.72880419731177
H          -0.97865325194983   -0.84598518904466   -2.31837170116800
H          -1.46132883089904   -0.78954853304317   -0.85371744473364
O           1.53907090921132    0.10698380100894   -0.57574914397959
H           1.04490673781655    0.83917079376873   -0.97907272251103
H           0.84316041623870   -0.49471087820107   -0.23973583084658
O          -0.48072625237532    1.86612765107486   -1.26558506414332
H          -0.87665246327329    2.57609245158041   -1.77157587351843
H          -1.00333340044485    1.03388680589574   -1.48526824597255
O           1.81891276333453    0.90720580543256    1.88258287505998
H           2.70672617989898    0.83453094490477    2.23643996216004
H           1.85943719222076    0.62874918318318    0.92101796845090
N           0.51630700340991   -1.57597496277666   -2.96918261844348
H           0.76538667648588   -1.47554155558685   -3.94484030948828
H           0.48371747130568   -2.56467469629241   -2.75448191838552
H           1.25625988254699   -1.16433091237030   -2.40951182405815
