    26
        -50.46746935  Gyration_radius:  2.37369482568 Dipole_moment: 4.687
 S           0.50546037031182    0.76696480826875   -1.33888308464046
O           1.16910782891957   -0.07981072802015   -0.34681632060647
O           0.91244373214779    0.35850615088085   -2.67536104910042
O          -0.95032198590688    0.71571550938732   -1.17809083498691
O           0.95811142667236    2.22572909208812   -1.10974950645321
H           0.70979863131495    2.46256007723763   -0.16119963600713
H          -1.29243467673598   -0.92375197100221   -0.98429823570875
O           0.25015364140320    2.59578642842377    1.34719467155032
H          -0.68447465477190    2.32332548790704    1.37206629347741
H           0.71866296249369    1.89386271626752    1.83588192785287
O          -1.06375394658121   -1.20953924023354    1.85957788879434
H          -0.19637700357072   -0.88494620160650    2.13898494812879
H          -1.59978101432282   -0.40737541315152    1.75711101734524
O          -2.12916062686958    1.26864998189678    1.06717034675829
H          -3.02235024891783    1.56487703860064    0.88740845780398
H          -1.72298763968878    1.06451095929254    0.18665318393151
O           1.34922160996772    0.24177870596608    2.20196159907850
H           2.25924550532946    0.10448219523847    2.46677252006158
H           1.31632459904331    0.09744343410153    1.22016582751153
O          -1.20349642700916   -1.86688177674437   -0.72647361656431
H          -1.11660655786270   -1.82182785270382    0.25791410157644
H           0.05371860243941   -2.14730051940832   -1.44347736691845
N           0.98681147879415   -2.13746486943585   -2.03722844597986
H           1.01215315878918   -1.13698204796719   -2.44300491010092
H           1.00834842385394   -2.85249034642356   -2.75748808782416
H           1.77218282074188   -2.21582161885748   -1.39679168897501
