    26
        -50.44731990  Gyration_radius:  2.52097302247 Dipole_moment: 6.576
 S          -2.32640070019829    0.50169713628607   -0.63141707606652
O          -1.82943460732981   -0.51404489031077    0.26464882516117
O          -3.72415807002881    0.71433597872721   -0.65396400991808
O          -1.55560687050433    1.82274913505607   -0.28188550471133
O          -1.82395192515865    0.22541089637749   -2.06242645067230
H          -0.83623747851645    0.05995504074161   -2.06556818222456
H          -1.51407088703397    1.81016140629122    0.73416767772592
O           0.36728137663853   -1.62820785512042    1.42777264855296
H          -0.49300114805895   -1.38376006219205    1.04856909067643
H           0.86289706385889   -2.03797540064492    0.67984457821167
O          -1.34670909170320    1.39166165898218    2.20278081172935
H          -0.37702161601032    1.25117530085897    2.27964952023852
H          -1.72882507234803    0.51068422181197    2.10132998259833
O           1.25454679595559    0.71306440366618    2.00887152019559
H           0.97503899561024   -0.23500740734114    1.79804900269055
H           1.90352512948164    0.65713612406019    2.71069723134265
O           1.24224670174252    1.86395606229783   -0.45597327841455
H           1.38830042955681    1.49845292726066    0.43762528454140
H           0.34386124527826    2.22106839759955   -0.44437079704794
O           0.75603505623796   -0.00908213759242   -2.18440098622446
H           0.97486437557045    0.35529127423469   -3.04483799662196
H           1.04102528795741    0.67842077021909   -1.51229932067242
N           1.54418127868663   -2.56614822299933   -0.83162427590255
H           1.30736842704742   -1.78185578254895   -1.43222893045984
H           1.05623582615779   -3.38130546996324   -1.17999372608330
H           2.53800947707234   -2.73783349562970   -0.91301561855121
