    26
        -50.44841633  Gyration_radius:  2.47461359691 Dipole_moment: 4.004
 S          -0.10170686515007   -1.55444813854024   -1.23719587225377
O           0.59933680428056   -1.70678548027724    0.01659891298459
O          -1.19688084850607   -2.44166188578517   -1.42993881305184
O          -0.61815088697691   -0.07403670461300   -1.29566212993394
O           0.87578698243564   -1.60213401013060   -2.39894781927881
H           1.42370750396101   -0.73028885692516   -2.38088805361106
H          -1.46106969579648   -0.11009951274707   -0.74717410452743
O          -2.63998847549229   -0.65128196599273    0.15950995446200
H          -2.20969298661917   -0.97389321055250    0.99246382508001
H          -2.81037110305846   -1.44842386824042   -0.35632442917370
O          -1.11349454626782   -1.55607761910501    2.12480231291447
H          -0.62869619791333   -0.86339134487997    2.58791742929754
H          -0.47823528949989   -1.92868028201935    1.49050456532708
O           0.91903506192218    0.52215336929087    1.52301390109560
H           0.14056335775995    1.08343682953718    1.30631163043333
H           0.83871720243951   -0.28724995098001    0.98813536214001
O           3.00082566244275    1.24475379236832    0.07186904679458
H           2.25651719076457    1.07029294039306    0.70282309338912
H           3.73264745073157    0.70094272705534    0.36696604919748
O           1.99575905604333    0.64956488022472   -2.27776234082897
H           1.21574933247781    1.20965344154057   -2.30704393497563
H           2.44646727397517    0.85898811610735   -1.41325017555396
N          -1.32219219322352    2.00787894040528    0.94586510543975
H          -1.52630611554755    2.71673267596270    1.63918077382307
H          -2.12663465442969    1.39547772678245    0.87667252071995
H          -1.21169305074334    2.46857738113014    0.05155321009496
