    26
        -50.44468898  Gyration_radius:  2.62725813849 Dipole_moment: 2.974
 S           0.61071453268765    1.08883057378667   -1.34038705532760
O          -0.09123246582086   -0.15967252246800   -1.56789390746431
O           0.41610338096959    2.10431143391981   -2.30934377278870
O           0.19212784520874    1.59920292089564    0.07484622042256
O           2.09476760168828    0.80463051931865   -1.13672193156249
H           2.22654217764434   -0.09250905582235   -0.63060273337539
H          -0.81398890181187    1.69909734494315    0.05655569393555
O          -2.52234987114113    1.48539414850986    2.72788204444496
H          -2.50280968628810    2.20973651979514    3.35497942990356
H          -1.64636094007303    1.03153797602691    2.80491508290903
O          -0.40940217246702   -1.47762766923953    0.67798172499537
H          -0.38516381416808   -0.98034372183322   -0.17330234814143
H          -1.22772121762598   -1.97655967219436    0.67555565049551
O          -0.08594659721597    0.43332286891881    2.61810679876791
H           0.34499897431829    1.04844285879396    2.01296616263073
H          -0.20652027785460   -0.37625725191784    2.09033968821242
O          -2.34532030918032    1.82759932124234    0.11431553113233
H          -2.63875599407446    2.71121543293979   -0.11591765697686
H          -2.54703691149960    1.68873120558130    1.07527946476365
O           2.29123536897032   -1.45241545163477   -0.03114006482384
H           2.16271145052072   -1.97493316711292   -0.86469035013568
H           1.47735657370951   -1.58412713516124    0.47801995111273
N           1.53578525453006   -2.42595651933205   -2.41009891927511
H           2.16311287008645   -2.20917441241588   -3.17412458882126
H           0.81280819913221   -1.70877947264776   -2.39354799856920
H           1.09434492974809   -3.31369709289408   -2.61397210650030
