    26
        -50.45361859  Gyration_radius:  2.46126511521 Dipole_moment: 1.806
 S           0.65517297556157    0.65090196007262    1.53022340636646
O          -0.51425593835567    0.93634202269263    0.73719981960423
O           0.37703344651720    0.20299787051569    2.86005428889801
O           1.51094083328031   -0.41083304187703    0.79155067592574
O           1.58989065111530    1.84947036195930    1.56701910675910
H           1.87294436741594    1.98013061267721    0.59063880429325
H           0.97547194127952   -1.00655354109588    0.17556991640498
O           0.15897322444020   -1.94256335862613   -0.75739579532827
H          -0.78010557211782   -1.70933863031874   -0.47855537363180
H           0.30466719876720   -2.84863608709719   -0.47700628520813
O          -2.07791784751941   -1.20975931318370    0.30699868408235
H          -1.74109664166163   -0.30720317186672    0.45004542873695
H          -1.92416766777469   -1.66080226368524    1.15846611517776
O          -0.98252814365130   -2.08642814856741    2.62198264268962
H          -1.38587519959406   -2.31031084237372    3.46265336748181
H          -0.45010302807894   -1.28213415352381    2.78551537820133
O           2.30155529254720    1.96147870811736   -0.84931852852884
H           3.21046900336876    1.65650331710218   -0.89311534296429
H           1.77750456502233    1.34113455763286   -1.43971279172938
O           0.97625198200386    0.30502786805548   -2.36785268096540
H           0.83946305406865   -0.56916928643065   -1.98552212138148
H           0.07697785357432    0.71635531137472   -2.39353351383646
N          -1.47642015378329    1.34755749223735   -1.99150961793752
H          -2.25179701796047    0.70041510025901   -2.06424999770196
H          -1.78541001548074    2.24703509759190   -2.33646089513603
H          -1.25763918299481    1.44838153834651   -1.00368469026639
