    26
        -50.47166723  Gyration_radius:  2.38852074291 Dipole_moment: 3.168
 S          -0.67692970561335    1.04914517243083   -0.67700383548895
O          -0.74659274890327    1.01583123906269    0.78008433130830
O           0.43902267196995    1.85920050363757   -1.14031567902046
O          -0.59893610270683   -0.30443703255257   -1.23335368203708
O          -1.98716753521919    1.69763665584388   -1.19668901515895
H          -2.67043209602957    1.00881843823179   -0.99937613601136
H           1.26444190260312   -0.74041685599475   -2.01926225969666
O           2.65307708742727   -0.77474370404117    0.62767359688348
H           2.46235649501517    0.07721161352064    1.08627265939382
H           1.87434245148182   -1.34761571009673    0.81439535397360
O           1.76089493814241    1.59627389654709    1.43998610652944
H           1.92848137167639    2.29593909298002    0.80422150377824
H           0.80580685567450    1.40737861552662    1.34743297147656
O          -3.22573496791929   -0.52063402480593   -0.59265855221096
H          -3.09687050662073   -0.74086905914135    0.34805963472753
H          -2.45082446558156   -0.88924775167339   -1.03912316254870
O          -2.13055496099699   -0.88748023857673    1.91307634379661
H          -1.58844573827930   -0.14130497046893    1.56452622858576
H          -2.47697399932243   -0.59512801397496    2.75731848360535
O           0.26740710963334   -1.96661066301806    0.68496493437764
H          -0.08768449776818   -1.42452200856249   -0.04489573105401
H          -0.40667783141983   -1.92144223959849    1.37264326805075
N           2.02125667055732   -0.10296371652384   -1.75930768983170
H           2.40959554485133   -0.42730623921610   -0.76667196897015
H           1.51884056421393    0.82060212995170   -1.59756159769800
H           2.73830149316793   -0.04331513950800   -2.47443610665035
