    26
        -50.44886260  Gyration_radius:  2.4488131201 Dipole_moment: 5.403
 S           0.32444987957794    1.06488200271154   -1.82066265528118
O           0.18583841772471    1.47604763141616   -0.42664523102369
O           0.73051330464300    2.10085856791348   -2.69835011386530
O           1.35886829330043   -0.10801159526441   -1.82139564010947
O          -0.94733161507506    0.40114550664110   -2.28159901642989
H          -1.23776032506910   -0.36536731557257   -1.58706547143014
H           2.07348877519635    0.13381201758561   -1.17309205544980
O           0.78728912651004   -0.16830819901649    1.58706313576572
H          -0.02529361217000   -0.37285878835308    2.06256084755616
H           0.50536304691939    0.44837228350300    0.88164634223854
O          -2.03698110335281    2.24764336039537    0.79874177032258
H          -1.83127608327062    3.05366257137064    1.27513995789289
H          -1.25535991069344    2.05235719080431    0.24178423470348
O          -2.06319053699618   -0.22712481790173    1.78818115047224
H          -2.94613043463060   -0.47615941482359    2.06540432529187
H          -2.11938971006079    0.71164572375874    1.49495675046897
O           2.97623103690837    0.61467917784964    0.08869256709011
H           2.86705176051753    1.56854899578008    0.11885580913943
H           2.46412289656325    0.26006255253973    0.83314811309997
O          -1.54295727231652   -1.35420599557931   -0.64272865346557
H          -1.73837257897052   -0.94618571734998    0.22762040003091
H          -0.70631590562269   -1.88956522440338   -0.51003190550721
N           0.78479545177203   -2.52642067430171   -0.17626963102633
H           1.34037220714612   -2.27265393930498   -0.98380943390518
H           0.97451471863664   -3.49107857056464    0.05951170600072
H           1.07746018281764   -1.93577732982660    0.59834270740264
