    26
        -50.45979812  Gyration_radius:  2.5179482466 Dipole_moment: 4.670
 S          -0.10052514018615    0.51709452694044    0.58014394764563
O           0.02462093894783    0.17316625996882   -0.85063840381029
O          -1.42279603022474    0.98052033052015    0.91143563404838
O           0.20864160830174   -0.78304960238018    1.36764049974130
O           0.95780371179576    1.45255212562361    0.95607428741319
H           2.20923122670567    1.24176436907304    0.34580743384015
H          -0.61190990169710   -1.40945257493668    1.30426187222976
O          -1.85994849740049   -2.19539476105676    1.15315274447420
H          -2.18308316907729   -1.90031274345636    0.27107637002623
H          -2.43471462005329   -1.73306947148115    1.79734229720289
O          -3.02106716760186   -0.27481134750570    2.62996538972989
H          -2.75992437428637   -0.03031487027507    3.51868869608892
H          -2.50811582885997    0.30204656367460    2.02665003048530
O          -2.46660872591200   -0.78307373537211   -1.02916837014445
H          -1.56097059778648   -0.43500282694842   -1.12105338662495
H          -2.95919263318423   -0.07708089405107   -0.60046006816309
O           3.02779381621638    0.97595312900380   -0.28513079829674
H           2.67438838997210    1.34910479710547   -1.23091660683641
H           2.90431864589303   -0.02979077978699   -0.37182210303836
O           2.11950247252391   -1.39038755993847   -0.56385211311208
H           1.94091983629540   -1.84003483885655    0.26760137906119
H           1.27080321284586   -0.95220513110190   -0.80052909583770
N           1.83475509130646    1.68146395039562   -2.39753398236128
H           2.09571225189697    1.28014596250704   -3.28882754691488
H           1.63434913454916    2.66439704576050   -2.52639515369827
H           0.98601635902782    1.21577207655516   -2.06351295318788
