    26
        -50.44048064  Gyration_radius:  2.69457818724 Dipole_moment: 6.090
 S           1.41286539426972   -2.33390152443983    1.07955851747010
O           2.00139529695470   -1.19544058040582    0.41936157011531
O           2.27824030153719   -3.38956064109420    1.44919491750999
O           0.60924022993131   -1.79792767371825    2.30894934089389
O           0.27412869780157   -2.89194416297139    0.18834458079684
H          -0.40808660792279   -2.16561604480051    0.14755397362078
H           0.86963482572985   -0.85128268770476    2.49665147628400
O           1.57560984610895    0.62371047087778   -1.40574755628479
H           1.76331152422224   -0.13521029580553   -0.80836307498396
H           2.41459315781106    1.07518186084075   -1.51262145614255
O           1.00462317172423    0.72166950955470    2.75986399207966
H           0.62230574738078    1.09855839355696    1.94150553084776
H           0.45855544806507    1.02469207359708    3.48846902571233
O          -1.94014053205421    2.55969398739308   -1.19386364486902
H          -1.66216663712842    3.29530276745421   -1.74101371606995
H          -1.82567077282736    1.74041270508252   -1.74436117366311
O          -0.21282711222764    1.40666931786923    0.46319435118303
H          -0.88861550552777    1.96188813402564    0.00986905084368
H           0.46740267705246    1.22890814562857   -0.22048290934773
O          -1.42442309599137   -0.95011239963780    0.35466527797418
H          -0.97468215269340   -0.06550670668331    0.41242013405225
H          -1.81818115240483   -1.11362434014179    1.21393286284968
N          -1.26187385577445    0.28400274081482   -2.46502449688715
H          -1.59529180502852   -0.44772214673176   -1.84701680980540
H          -0.24943899678675    0.30224982108787   -2.38153628665027
H          -1.49050810221757    0.01490924635267   -3.41350347753575
