    26
        -50.45230133  Gyration_radius:  2.46679320338 Dipole_moment: 4.294
 S          -1.13158320104302   -0.25140077496502   -1.97407585661954
O          -1.48840737033288   -0.65953303928271   -0.62387358997571
O          -0.91848906423236   -1.31439460534028   -2.88623396644181
O          -2.24349443126204    0.69289357186192   -2.48756885207741
O           0.11723086037707    0.62404523017596   -1.89883851142156
H           0.27642015876907    1.14522420679421   -0.98356932731511
H          -2.35753778084675    1.37405163224015   -1.77868154136608
O           0.72669472268736   -1.73132728464400    2.26031759964189
H           0.31989454967414   -2.49801297606683    2.66722533900450
H           0.83321048479128   -1.94485999890415    1.31904465554457
O          -2.16758038922640    2.29302319846889   -0.40428109552896
H          -2.35994949384166    1.79093121172981    0.39494776135246
H          -1.26646550298233    2.62449380415877   -0.30131929126281
O          -1.03205247283641    0.34770068341145    1.79128001763500
H          -0.41053875071991   -0.29081269859659    2.18620061174597
H          -1.37397946865256   -0.10960199272237    1.00105224996868
O           0.55644035322405    1.77707255400178    0.26353476503267
H           1.44828590808404    1.34792086973208    0.41217526578919
H          -0.02531625325042    1.33141497974094    0.93789721767473
O           0.77378440597526   -2.06810761471342   -0.51334988755305
H           0.85980381314850   -2.50502477883441   -1.36358305184184
H          -0.09460779717486   -1.62858942904849   -0.54845949318419
N           2.59773861237176    0.14493717189380    0.60866259111707
H           3.56761889203609    0.30573906152826    0.37096191186540
H           2.23634278089776   -0.58127582214286   -0.00402983832781
H           2.55653644437406   -0.21650718045001    1.55456433654644
