    26
        -50.45486958  Gyration_radius:  2.47936987794 Dipole_moment: 6.181
 S           1.91501867190101    1.37573225237305   -0.25322685901654
O           2.01898885223920    0.42656361732146    0.88083031189611
O           3.16341828889955    1.89534810494960   -0.68712959358255
O           1.13792320412261    0.71595141025757   -1.33329772387663
O           1.02333405683329    2.56235136079883    0.23963289592443
H           0.14614187334404    2.19695775829079    0.48693272197629
H           1.22247862377573   -0.81480415764871   -1.12207735755026
O          -2.36297660002895   -0.40918710514804   -0.42818256874981
H          -2.01284382084986   -0.22004179800272   -1.32392317734616
H          -2.16264595699747    0.38666753683351    0.09087102048198
O          -0.03510893098573   -0.20244191267599    2.43188407748491
H          -0.31449471845366   -1.03045647516819    2.01323508861297
H           0.81723707896587    0.04409183921277    2.01001105933168
O          -1.11192491728313    0.35475444036803   -2.68350705952665
H          -1.36934784212304    1.15691014888463   -3.13969866427778
H          -0.25526577787965    0.55162658907123   -2.25206653645150
O          -1.31336983778588    1.62567135335649    1.12630710778189
H          -1.68214272447115    2.30399048584853    1.69420230315256
H          -0.89370171248368    0.94190293326708    1.73041264714787
O          -0.91405296116857   -2.24246788082364    0.66750358042409
H          -1.50935664943223   -1.55297436118120    0.23183456822913
H          -1.45309410014352   -3.02697521629187    0.77115689587551
N           1.44043897800913   -1.63461851781455   -0.46794384693676
H           0.55478962339258   -2.05206281851292   -0.10733364185485
H           1.88098550472866   -1.03234374681713    0.29194579756699
H           2.06957179387542   -2.32014585075143   -0.86837305671766
