    26
        -50.44725683  Gyration_radius:  2.47027096576 Dipole_moment: 5.242
 S          -0.68872984758736   -0.13263014341335    2.11399810405037
O           0.44515057598904   -0.48237680423118    1.27874172147528
O          -0.41041984631838   -0.03728909033025    3.50087106275204
O          -1.23600500232055    1.23358653298220    1.56697919788465
O          -1.84763313738538   -1.07119817927970    1.83415147955986
H          -1.98366914974680   -1.01798009527449    0.80285935405377
H          -0.48577727845017    1.79132897417366    1.24954413361052
O          -2.00280271155437   -0.87704961243366   -0.65304282408372
H          -1.46373843013159   -1.64144725892805   -1.00623610611351
H          -1.52831367441552   -0.06936578110309   -0.91551079782514
O          -0.63516300786654    1.41623457641987   -1.52855979350475
H          -1.31193473492760    1.97604803535962   -1.91295248523291
H          -0.18331885166670    1.94600952161000   -0.85264776785643
O           0.73623441775205    2.65698470659915    0.55926748738042
H           1.54642571011364    2.06531153165464    0.62547636339806
H           0.93898298701334    3.45281014255842    1.05393151613544
O           2.67894623640840    0.94733177635664    0.76538949076935
H           2.73868917867477    0.53034710313922   -0.10802341508148
H           2.12834813252707    0.33259819434706    1.27940176490837
O           1.41316079748547   -0.54266016549469   -1.26479514966591
H           1.04688456851135   -0.65386553885608   -0.36912289708722
H           0.83185131441568    0.09791435912356   -1.69051943495155
N          -0.38882889673679   -2.81937294465661   -1.52278318135617
H           0.46575491829103   -2.28203784426595   -1.65702191667238
H          -0.58076406928764   -3.33528991424633   -2.37129077636685
H          -0.22333023879515   -3.48394212185112   -0.77810514009119
