    26
        -50.45592076  Gyration_radius:  2.41388646136 Dipole_moment: 3.045
 S           1.10133751022388    0.80638082075325    1.20234033748826
O           0.30159274801206    1.38896591342013    0.15257164741218
O           2.41418354826106    1.33790427319037    1.34249666794849
O           0.33748609049519    0.93256098539508    2.54090676475956
O           1.13459209877135   -0.72016794815548    1.00079151027625
H           1.29780758702220   -0.93356822527103   -0.05365873835430
H          -0.59513407359650    0.61776166062112    2.37677957556214
O          -2.03872401069877   -0.05172977588323    2.07734722279496
H          -2.44814706302550   -0.28526367000384    2.91270445588570
H          -1.79733296512905   -0.91523788306703    1.62819219296898
O          -2.21690035360708    1.01209919563349   -0.55291859685439
H          -2.56005634672505    0.77803514757621    0.31797349060761
H          -1.31220540903693    1.33645509556814   -0.37167789839718
O          -1.33745590486159   -1.16579399226233   -1.70631853575273
H          -1.71247850166265   -0.31727647537962   -1.33834395230652
H          -1.86035502428879   -1.38509073300143   -2.47816811264005
O           1.38181369102028   -1.08228227837207   -1.41903747235221
H           0.44321921303923   -1.04978731719075   -1.69119338051381
H           1.81339834790392   -0.20361735587517   -1.64765173391021
O          -1.20543348563394   -2.19114030147370    0.84919282165251
H          -0.26829510239710   -2.03381406050095    1.03197678058762
H          -1.31007191978516   -2.01874850871931   -0.10422802191906
N           2.52993973026113    1.28039558944197   -1.58588261960550
H           1.80185436670217    1.96187242380324   -1.76325827448930
H           3.34823484183718    1.53921959796533   -2.12377946758128
H           2.75713039687411    1.36186780186333   -0.59715665330043
