    26
        -50.44345903  Gyration_radius:  2.48259324575 Dipole_moment: 4.627
 S          -0.18107307679792   -0.55602445309416   -2.01576597302806
O           0.27067279186727   -1.21972005619529   -0.81203620620553
O          -1.22115565405387   -1.22483304975384   -2.71340185041214
O          -0.62506452637350    0.89441808609868   -1.63606792723445
O           1.01850349869421   -0.25889790107461   -2.90787221811583
H           1.58250048128690    0.36567240708576   -2.32675857232003
H          -1.51691406233668    0.91349252977991   -1.19020316267094
O          -2.81740820040979    1.14774564975421   -0.27536317935796
H          -2.37701376268973    1.06352167814089    0.59746754303042
H          -3.08839774317983    2.06354921184606   -0.36548241859326
O          -1.33855200500212    0.64336718142924    1.89212479057941
H          -1.44399521174739    0.68891618227006    2.84367250234696
H          -1.37542938654705   -0.31804527104126    1.64836462440848
O          -1.57277935197691   -1.81200129650893    0.96824143902324
H          -2.37172966748572   -1.91876054671923    0.44739414133902
H          -0.84531002718977   -1.71875481874145    0.31483625368968
O           2.19186038036706    1.39256114120766   -1.39447756694232
H           1.87373640557781    1.30606668450769   -0.44939471866430
H           1.86732155928068    2.24425433137748   -1.69511415192781
O           1.34304066669214    1.23579041574845    1.08396825594517
H           0.39043512622301    1.14329292456465    1.22583260173079
H           1.72287167230493    0.36482000570885    1.34072848635824
N           2.11509124806009   -1.34684465634605    1.43592567577538
H           3.07117398076435   -1.61837668280245    1.24511947628072
H           1.57461086077989   -1.50812255989618    0.58894676822516
H           1.75300398496775   -1.96708712895911    2.14931539433916
