    26
        -50.43972002  Gyration_radius:  2.72120065178 Dipole_moment: 9.328
 S           0.36129422560794   -0.08723041688636   -2.84136066493726
O          -0.90414283420274   -0.42704164325515   -2.22386291109532
O           0.31429572160923    0.83390051037587   -3.91798728759958
O           1.31823559181058    0.41133676526230   -1.70950375555539
O           1.07491928475697   -1.38405945222923   -3.25279794880991
H           0.96405140472200   -1.98479246665818   -2.42782282953215
H           0.92255864491511    1.17616620732811   -1.19335586809565
O           0.87681287630489    1.40633203234683    2.47426508053824
H           1.31617901085996    1.82448930397592    3.21520323961158
H          -0.09179298330530    1.55892173681001    2.58846263704508
O          -1.77810292505511    1.74453632908208    2.43723160478460
H          -2.08272173058547    2.59985382756104    2.12734068991302
H          -1.95304993483747    1.11853619327098    1.71178480060531
O          -1.56061166272643    0.10556618447693    0.26137669177092
H          -0.89631293683993   -0.47914715315849    0.66835358349100
H          -1.50769452032975   -0.09007361552764   -0.69919358614363
O           0.19609179002621    2.12787752568893   -0.14917676757047
H           0.71311231543495    2.03938897213915    0.66568375272637
H          -0.58299315963534    1.54589709851149   -0.02284545250059
O           0.53145344936696   -1.16407567718536    1.56673949499149
H           0.86011964003865   -0.28521439015125    1.83110496405336
H           0.30888581210494   -1.62203858630937    2.37956442312634
N           0.52054871107823   -2.66238055779576   -1.08964850189218
H           0.84673658958534   -2.13900038331218   -0.28401177567889
H           0.71157662326306   -3.64485079079657   -0.94458111988676
H          -0.47944900398091   -2.52289755356920   -1.17096249336547
