    26
        -50.46578199  Gyration_radius:  2.37948871489 Dipole_moment: 4.137
 S          -0.22929610919629    0.01151059907861    1.45632501217635
O           0.89854082674204   -0.01287620536834    0.51278315866897
O           0.06848481318226    0.91519412861158    2.55573097549171
O          -1.46540703977161    0.35152593574826    0.76890550657750
O          -0.37210786534777   -1.41262579253097    2.05494247169771
H          -0.54794676081800   -2.04614901070147    1.31281143620811
H          -1.33006080228555    1.85020035506671   -0.09660516335248
O           1.58011898738759   -2.11675385719713   -0.95148062120355
H           1.46960603460972   -1.74282753436262   -1.83078293819836
H           1.49634512607046   -1.35825371769450   -0.33485579795771
O          -0.85117590096281    2.53560928205405   -0.61034344574501
H          -0.46481892265635    2.02282742705280   -1.36399837201520
H           0.28604263173750    2.76671345893607    0.29714831896685
O          -0.61246263749963   -3.12230856657204    0.07064340368593
H           0.23677048527746   -2.86932052455396   -0.38223211585758
H          -0.48559825687966   -4.00639316707962    0.41987982809918
O           0.31937116621877    0.63581707376811   -2.03121359807754
H           0.63774851140591    0.40016145373961   -1.13898590151192
H          -0.45590131059583    0.05751440733976   -2.16226817672353
O          -1.76378423882867   -1.03164461992491   -1.51726582144137
H          -1.83653742365329   -0.51602043701568   -0.69213188378981
H          -1.64646144084223   -1.94263347329276   -1.23085260164783
N           1.10114384572197    2.71309195166618    1.04533010023074
H           0.71815225909106    2.03641630764452    1.79669709901474
H           1.34197201140985    3.62069064866223    1.43118179526387
H           1.90726202047615    2.26053387693107    0.62063734147419
