    26
        -50.44406841  Gyration_radius:  2.4983930872 Dipole_moment: 8.377
 S          -2.47369539203431    0.00756452440551   -0.55612417663473
O          -2.17665448599773    0.20126504622863    0.84007811407948
O          -3.56403285439455    0.74217104966864   -1.08869886627069
O          -1.15448173723362    0.37318884771167   -1.35330138078937
O          -2.59952226975834   -1.48009831747570   -0.86895708407801
H          -1.79075552419732   -1.90746927061033   -0.40111297784943
H          -0.69513199228648    1.12920887488733   -0.90727967983867
O          -0.48057801480385   -2.31737087790210    0.21819153491128
H           0.16475511656603   -2.14654736377079   -0.51795721587421
H          -0.23878751833701   -1.68885356298044    0.91644652608169
O          -0.39792120861341    1.53700609251889    2.25668818778381
H           0.21051889096903    0.79284499427564    2.38322883093619
H          -1.22534270408341    1.11002954745120    1.96105291406404
O           1.19890920870708   -0.67128460834061    1.76874625729953
H           1.78239053127433   -1.34824840778426    2.11460183512734
H           1.66659416673954   -0.24058871619564    1.02586167185581
O           0.11052579509933    2.32885046285991   -0.13447544175638
H          -0.34357496696163    3.15674238879443   -0.29931846911043
H          -0.06400481138891    2.09508124319184    0.83776993879653
O           2.40623494648897    0.82372159915558   -0.18786463167802
H           1.63287547362455    1.39739016227987   -0.33090062943686
H           3.10703330939244    1.39268333635193    0.13653099331414
N           1.13654702568204   -1.48224133345559   -1.75474407968328
H           1.50664122903173   -2.04544865794211   -2.50905939318316
H           1.87484747940378   -0.87410086685518   -1.41905887612222
H           0.40661031711241   -0.88549617646926   -2.13034388194442
