    26
        -50.45296275  Gyration_radius:  2.46422772882 Dipole_moment: 3.800
 S           0.96660863632801   -1.36507978333883   -1.14505557265711
O          -0.14703479145834   -1.23416512762435   -0.21830719923762
O           1.88969775480772   -2.39928393524664   -0.85043988831787
O           0.41104806994563   -1.57476174581948   -2.56049158131668
O           1.69514109148009   -0.00929107567964   -1.21384971954515
H           1.20528494976209    0.76985137183548   -0.77588094524352
H          -0.15963280547940   -0.79215831698953   -2.86370115174956
O          -1.80669631401975    0.79993915288887   -0.75885346576049
H          -1.21876828892017    1.51519135443044   -0.47738417917049
H          -1.34136774492948   -0.01234426303149   -0.47915523974334
O          -1.11429349212303    0.36242591103620   -3.23402910993687
H          -1.48347766977833    0.63063885323299   -2.34693301118176
H          -1.84919647982025    0.02474101270161   -3.75013927715543
O           0.74267783509235    1.23279477314084    2.35751496025822
H           1.36226299913094    0.48675242668491    2.30441910157549
H          -0.13920695836196    0.80360603846341    2.48416892270634
O           0.58665840528595    1.97898325832583   -0.06957876797669
H           1.17718720604753    2.72387668161076   -0.19543795677594
H           0.65004464219509    1.72692304633648    0.92316826635086
O           1.87716902208645   -1.15153178634317    1.65522976260661
H           1.08942780960228   -1.32825059175149    1.12592813440603
H           2.57487863804320   -1.65901947452964    1.23349326184017
N          -1.54969931863827   -0.20307341825011    2.28896069732991
H          -2.35870683671681    0.26811263999348    1.90263887768476
H          -1.85445814332494   -0.75115161335391    3.08310004765627
H          -1.20554821621877   -0.84372537877695    1.58061500334464
