    26
        -50.44625989  Gyration_radius:  2.51424968919 Dipole_moment: 5.452
 S          -1.83149407372380    1.45550679572755    0.73077932180356
O          -0.71319659093534    2.20304930204114    0.20345372093617
O          -3.07373383135620    2.12486438934235    0.82513966854512
O          -1.96125022736503    0.15815093444237   -0.13538845950532
O          -1.46239347824349    0.87711780457595    2.11217174978968
H          -0.59823110826130    0.36901457341032    2.05769644710288
H          -1.47358510710054    0.36209870383939   -1.01662648713571
O           1.64699868568149   -0.50229559521992   -1.82476688232112
H           1.96945325317968   -0.99059722959603   -2.58343069206926
H           1.37821566153409   -1.18785332888967   -1.15081602352001
O           0.86562386136380   -2.24233586599535   -0.03170726353390
H          -0.05973524666823   -2.51852331073760   -0.16494383370666
H           0.86141571241610   -1.73632774726513    0.79488230139840
O          -0.61141747566771    0.87936481972729   -2.12729397251207
H          -0.45673888829222    1.70621648320928   -1.64719646805845
H           0.23873152635334    0.37615337061754   -2.08529085469094
O           0.80748351375390   -0.35347050428590    2.02098875512916
H           1.35709170455828    0.30545650721130    1.45662164107233
H           1.18344105417248   -0.35675206178578    2.90285262783668
O          -1.82959508586880   -2.58979160554420   -0.30679403682725
H          -2.03104345473525   -1.66225945721826   -0.10954944286573
H          -2.32333505531237   -2.81479746777237   -1.09694432084025
N           1.99108583129530    1.35668217522494    0.48976092356252
H           1.16076772316144    1.93022586032650    0.34732076052831
H           2.19874730117077    0.89103982399592   -0.38801607730972
H           2.76669378489210    1.96006263061944    0.72709688719123
