    26
        -50.44900451  Gyration_radius:  2.46748051882 Dipole_moment: 4.424
 S          -1.57408971883730   -1.30720205582572    0.12234578815093
O          -0.75028440704214   -1.15672023999218   -1.04790950998412
O          -1.63754467314422   -2.61736735526926    0.67767472071188
O          -1.08363860195875   -0.29275583403154    1.19008377930503
O          -2.99018723051689   -0.77525043637980   -0.16877319483191
H          -2.80211538890897    0.14532850528438   -0.49898203512081
H          -0.05588616637716   -0.21460689890849    1.17462747604710
O           0.09843087943420    2.36915425174297    0.83109614001314
H           0.69782758584419    1.63333995163835    1.03576035657310
H          -0.35975712370693    2.57386852152200    1.64821851086407
O          -2.00461811158460    1.50525915465135   -0.91455293452175
H          -1.45594754226706    1.34032887451816   -1.68921328432266
H          -1.38584295453341    1.76889462874741   -0.21262048880413
O           1.67343376195509   -0.10586418328646   -1.50124049702867
H           0.86051850100971   -0.63923237934373   -1.54377141237574
H           1.40982719806168    0.77411293939319   -1.81747816463691
O           0.62175226846689    2.42548506397003   -1.92715265174905
H           1.08476039527409    3.16974194278642   -2.31367634909770
H           0.48870880004724    2.62855379351010   -0.98957696762792
O           1.43420311026991   -0.09715590309003    1.10088311824716
H           1.55977978908543   -1.05130302309409    1.34764997727021
H           1.65826312769975   -0.07468414206065    0.12707354927818
N           1.21194190291808   -2.73424884605475    1.37106717651488
H           0.21166098171720   -2.80404153078757    1.18641716240446
H           1.40366534460092   -3.26902561784667    2.20966982571678
H           1.68513826249872   -3.19460916180316    0.60237989899947
