    26
        -50.44203736  Gyration_radius:  2.53435398195 Dipole_moment: 3.414
 S          -1.42365907268590    1.59461960853161   -0.10075360028607
O          -0.08131248284076    1.60878430838373    0.42447896565529
O          -1.82848750598308    2.72143577312431   -0.85677440401148
O          -1.57249000602921    0.28332116020516   -0.95178141872341
O          -2.42600489147964    1.31253402220884    1.02693517235430
H          -1.98291507959205    0.63988632304432    1.62595372641899
H          -0.73493127756443    0.11700186347749   -1.51571964192659
O           1.75433592860066   -0.28233088427549    0.13811344255512
H           2.52130261848438    0.30857383304433    0.02288806564544
H           1.05380466954663    0.34568140258035    0.41645716623532
O          -1.41006982043381   -2.48012252903385   -1.07246504765022
H          -1.72814021983924   -1.56566908513671   -1.00891582035630
H          -2.18063183425655   -3.04349868075664   -1.15626161887802
O          -1.28970072366103   -0.45756990619569    2.48262856348468
H          -1.85421710672332   -0.92788400591532    3.09842870595559
H          -0.72530794951706   -1.14406830153761    2.03178428309064
O           0.51211482621223   -0.48481406789408   -2.16968508566217
H           0.26994505108713   -1.41033038598353   -2.28056485130365
H           1.12009023223869   -0.45152751577951   -1.38410200910485
O           0.14879625647424   -2.24789226190177    1.20939873959757
H           0.91924590268999   -1.72997380326877    0.92894725636796
H          -0.33138645251814   -2.47731933572376    0.39637131530939
N           2.87476211576178    2.17140460607775   -0.29267911891136
H           2.99835717006374    2.46131518745452   -1.25537515658204
H           3.48102791956528    2.74746926908609    0.27847609243062
H           1.91547174239986    2.39097339618693   -0.03578373170732
