    26
        -50.46564183  Gyration_radius:  2.42065485105 Dipole_moment: 2.449
 S          -0.01602978547222   -1.25641136600091   -0.31541266887953
O           0.85918101646860   -0.87959066320889   -1.41246863354675
O           0.66134816818041   -1.19672890512076    0.97454905323060
O          -1.21933243199651   -0.40781799156699   -0.30062835434396
O          -0.49015694905849   -2.71422957590671   -0.51212548659844
H          -0.89542129575777   -2.67661834864072   -1.42629380063676
H          -0.99917613831773    1.05429336535703   -0.31756544356287
O          -0.13963698929612    2.10310960419700    2.19166768026491
H           0.79260354319279    1.82065683048991    2.14891550249455
H          -0.63936675100591    1.30406720900162    2.49843199722455
O           2.19827845325590    0.84212992703520    1.53207169414441
H           2.94916950235874    0.56048159270778    2.05653580021775
H           1.67871908521873    0.02378350954417    1.33469607652340
O          -1.29763326248461   -0.24960605741446    2.52238798483987
H          -0.56048315449837   -0.73750257436211    2.10585327648073
H          -2.00776541669749   -0.29566477118823    1.87555325982414
O          -0.67482426364020    2.03718567539172   -0.24706208604242
H          -0.51007298300836    2.18437850571578    0.79911239466938
H           0.28519029300460    2.00257369773496   -0.66565285272524
O           1.66260030959262    1.59025577691885   -1.05547292475527
H           2.13038487498234    1.50646670679293   -0.20725706479537
H           1.48093125929553    0.66251095448685   -1.33819716751575
N          -1.30207378085754   -2.00317918797171   -2.87206488370617
H          -2.08277215340068   -1.37739809067431   -2.72160799488583
H          -1.41108844719915   -2.45116749320490   -3.77281097235565
H          -0.45257269283324   -1.44597833026260   -2.87515436555512
