    26
        -50.45644088  Gyration_radius:  2.42997692807 Dipole_moment: 2.179
 S          -1.40528223885622   -1.07996013898284   -0.37574501850867
O          -0.97616841112540   -0.39728511512503    0.82789971305408
O          -1.71794313582283   -2.45423950887768   -0.23445210217648
O          -2.60039670586895   -0.31133538805715   -0.95656728809682
O          -0.29635749078147   -0.94393461701719   -1.44373919239474
H           0.08549409191959   -0.01194946424562   -1.50370369595406
H          -2.38656460759338    0.68301680087820   -0.93799322379361
O           1.83176899213253    1.66701201396889    0.62553961755705
H           1.11692340683796    2.04988884584086    1.15453746891327
H           1.93380651433844    0.74135843202540    0.95858466490708
O           1.62861384619008   -0.83448327342585    1.47703622221999
H           0.66397168835062   -0.74339686337944    1.47856185428373
H           1.77144709424642   -1.65359838653994    0.96167382853625
O          -0.76675824414636    2.10245799786737    1.64755653984510
H          -1.15728012029364    2.23548614521814    2.51242879315939
H          -0.84152704362631    1.14406563594617    1.45113175276356
O           0.69443869078414    1.40840788922350   -1.63353009657223
H           1.19185773411427    1.54355912897606   -0.74764670863333
H           1.36118247659346    1.43225500701582   -2.32190747069654
O          -1.83114846734108    2.12281265210856   -0.87405962760751
H          -1.58762484275257    2.32913249862416    0.04769124131160
H          -0.98842730790446    2.09348533689485   -1.35457471350949
N           1.19439604400258   -3.08505478608122   -0.03132395631569
H           1.46757915335324   -3.01617463932271   -1.00429716651501
H           0.18127530796383   -3.00409818064211   -0.00944968632448
H           1.43272356524481   -4.01742803286526    0.28634823054505
