    26
        -50.44416154  Gyration_radius:  2.57663479383 Dipole_moment: 4.579
 S          -1.39620215786803   -1.37863910443053   -1.65389765889516
O          -1.46999940473032   -0.41757206387822   -0.56935308517333
O          -2.61795115353008   -1.71163621021801   -2.28215679622389
O          -0.33829236311041   -0.87267149775750   -2.66491276438162
O          -0.74491999314496   -2.67393728201239   -1.10778493685316
H           0.14909471289751   -2.44003194930812   -0.73853714308971
H          -0.13737731820164    0.09979390444361   -2.46264724003004
O          -0.00554488766842    1.47906300258658   -1.74868055788746
H          -0.73471852092421    1.19853278740112   -1.17409380861159
H           0.81613732287478    1.31612026159878   -1.21754926668542
O          -0.27974881670273    0.61304443969346    1.61608026480069
H          -0.81871722441781    0.20559003253493    0.91397563654958
H          -0.45015857326620    1.57926980906297    1.53600828755757
O           1.87368528359619    0.69193603226377   -0.06369903139859
H           1.25965969994539    0.71439616497520    0.69704498012190
H           2.00930282421827   -0.24569428433386   -0.24967767619980
O           0.53002462665431   -1.82440803932914    2.39746223035687
H          -0.30228240528990   -2.29561218527934    2.47353224497653
H           0.29860218493163   -0.87724664996816    2.34526339971307
O           1.54581342903061   -2.11427584193589   -0.00571025564389
H           2.13555288171479   -2.86961164687442   -0.04462821325040
H           1.23865590708699   -2.03673781045410    0.93969228544657
N          -0.62428884790439    3.21697590237365    0.88025803963636
H          -0.33144128161660    3.19686687629946   -0.09105791997933
H          -0.03131769270399    3.87876077528089    1.36534118534390
H          -1.57356819185170    3.56772458727434    0.90972779981385
