    26
        -50.44525948  Gyration_radius:  2.61388601542 Dipole_moment: 6.460
 S          -1.07602106985354    1.49850135990946   -0.97170948713589
O          -0.37474179727677    1.34048452925449    0.29429434822588
O          -1.18902891260989    2.82823028157226   -1.44343670517042
O          -0.38284386704015    0.56727606005953   -1.99565091742898
O          -2.45637273814002    0.84978962896059   -0.84709714847032
H          -2.30490607188914   -0.13154097219006   -0.61328568555151
H           0.57555440767651    0.86588503206189   -2.15070215202913
O          -1.54545128563938   -1.39972308072183    2.49363283223765
H          -2.23474721165355   -1.76858951343478    3.04753706815014
H          -1.58900768558257   -0.42257613676191    2.61509577539266
O          -1.87035052130274   -1.53425226859015   -0.19354432308186
H          -1.89920710494025   -1.55911944855693    0.78802337668479
H          -0.92368139964322   -1.57191197389645   -0.40216873955029
O          -1.60349359186527    1.26018224969606    2.63238762919059
H          -1.20651878239117    1.39321285513301    1.74522289874780
H          -1.09638837410180    1.80940128268381    3.23261069307849
O           2.05729237417560    1.15939664587921   -2.38471022479337
H           2.51984056225059    0.43761335733997   -1.85857503210036
H           2.25910375438244    1.00454817053458   -3.30989428472871
O           0.73001206425723   -1.06486487458923    0.61299607326869
H           0.43541092664703   -0.13714844201159    0.50718970547725
H           0.36688354812671   -1.35479444612820    1.45697123084919
N           3.14280054947015   -0.81848307927142   -0.99229766451133
H           3.92487923477295   -0.55548244902345   -0.40622345171808
H           3.38750258394014   -1.67329984175836   -1.47595595260255
H           2.35348041823084   -1.02273494614792   -0.38070983242482
