    26
        -50.44669159  Gyration_radius:  2.46424148266 Dipole_moment: 1.852
 S          -0.81673688857821    0.95574156962612   -1.88894367962733
O          -0.65850184077859   -0.36978242091419   -1.32573177745991
O          -1.89633952718566    1.10164654080369   -2.79542362324394
O          -0.94884287457649    1.96215711864507   -0.70244186414552
O           0.49969705978778    1.40252642362863   -2.51791817625597
H           1.16128360393126    1.38208809474118   -1.74464937762100
H          -1.40502096979704    1.56256284294225    0.08046207119583
O           0.81122515069833    0.94786849867572    1.74063936350570
H          -0.12094657342909    1.17469496698848    1.80494153946625
H           0.86046161001208   -0.02916958853844    1.90234472245334
O          -2.10233872485021    0.89614686443759    1.39442438818273
H          -2.07511705771942   -0.07735127041944    1.25524369844862
H          -3.02007709578679    1.14264832860419    1.52262189231846
O          -1.86060727625423   -1.64507413409776    0.61895665361643
H          -1.37223890167814   -1.26860647377304   -0.14909017095482
H          -2.49828644808165   -2.26286619472734    0.25784180248290
O           2.04297292843915    1.40153347903429   -0.50550890200101
H           2.39501966937333    2.28758327691714   -0.39757227756964
H           1.54751826986861    1.20511937820277    0.34660476381627
O           0.73774824330591   -1.69625075841072    1.87131361987748
H           1.25472122300334   -1.83538275751451    1.04481368825261
H          -0.17927874215564   -1.87543014314982    1.63156929221185
N           1.86559400886394   -1.68556164937668   -0.60401644479816
H           2.52679693446865   -0.91777241653692   -0.61199077597967
H           1.01377361735672   -1.33796705119951   -1.03725340469519
H           2.23752065179601   -2.42110249464267   -1.19123701145650
