    26
        -50.45027392  Gyration_radius:  2.4989429965 Dipole_moment: 7.444
 S           0.77255418122618   -2.30256832812828   -0.54004429443034
O           0.07908261212662   -2.15804792399699   -1.79711218662826
O           1.68161804803796   -3.37686990617355   -0.39638854549771
O           1.48354680830675   -0.96297499682364   -0.21569544151226
O          -0.27535747930227   -2.39942786387611    0.60216769740617
H          -1.00665800981034   -1.70966059844498    0.45241374164521
H           1.34327777537683   -0.18170840639960   -0.92410147179179
O          -0.77613370415828    1.11257895008879    2.06790223246981
H          -0.05099645239533    0.46766823230363    2.27021695787684
H          -1.27479950311207    1.21691009540208    2.87980692138316
O           1.06972760124378   -0.75053378660748    2.46013999153778
H           0.63383427106330   -1.60364619345432    2.55239164438895
H           1.47241330351228   -0.77479581368398    1.57586691471324
O          -1.36889577702885   -0.09932377072405   -2.34743360243273
H          -1.90670551593116   -0.23730047557086   -3.12838622430534
H          -0.84888864751983   -0.93737420224375   -2.21900593222129
O          -1.97631691214685   -0.53118128099610    0.27471070879422
H          -1.61866035855069    0.17325120972373    0.85253570459311
H          -1.89991236779379   -0.22335332609173   -0.64612216480381
O           1.07260328518167    0.94340325733738   -1.74881971699657
H           0.19724236110049    0.75129670410252   -2.12883120852989
H           0.93687439043894    1.69159049277070   -1.09588427078768
N           0.61143390386793    2.81012968546379    0.08706756870359
H           0.08404381783436    2.32931764370811    0.81176900971586
H           0.08460675679568    3.62606548949011   -0.19702003072151
H           1.48046560167246    3.12655510272235    0.49785599741579
