    26
        -50.46403734  Gyration_radius:  2.49606309469 Dipole_moment: 6.604
 S          -0.83355075806290    1.47887552308215    0.09567986367859
O          -1.45708483397966    0.17228009359351    0.32969918663233
O          -0.28689290134446    2.05549807618753    1.29175805539368
O           0.17759098368163    1.34114773685707   -0.97073980321314
O          -1.93990859174989    2.43074116771174   -0.44786860765198
H          -2.11008760275299    2.11580248378169   -1.36371068423222
H           0.77374150946105   -0.08739034966562   -0.93603949362232
O           0.02780716440625   -1.81269524053826    1.39611981234922
H          -0.65999730209904   -1.12928988945151    1.29125576702512
H           0.57812361093189   -1.53531723006534    2.16074435752649
O          -1.75090429207237    1.24051664249555   -2.79983792739207
H          -1.94574390264490    0.29560823888682   -2.71443722185972
H          -0.84125335627814    1.33946039867103   -2.47194921501090
O           2.10860392735659    0.99807474113309    1.30552928493258
H           1.20870669014651    1.40039567666887    1.30547004923879
H           2.71157494297567    1.74076583839229    1.37107877040110
O           1.77547622264393   -0.87333385082717    3.20093373406882
H           2.61298277961986   -1.32283104548624    3.32215208716625
H           1.94465715011497   -0.11408017032512    2.60292222411251
O          -1.68407634629383   -1.36202162500073   -1.74868569803209
H          -1.67546419517376   -0.78589414348465   -0.93725589320388
H          -2.35034026194186   -2.03108549495718   -1.58500254476583
N           0.91455287579234   -1.14620960054697   -0.94483899067560
H           0.70127540746128   -1.49161567667506    0.05994538213352
H           1.84000245748018   -1.40128109758414   -1.26947003397642
H           0.16020861232362   -1.51612118288395   -1.54345244100590
