    26
        -50.45165585  Gyration_radius:  2.47205991255 Dipole_moment: 3.924
 S          -1.25488437698960   -0.48851528896524   -1.03481887079401
O          -1.06825617913173    0.69716103861479   -0.22663668656378
O          -0.78534801449608   -0.38373619925703   -2.37526954368886
O          -0.55773911430344   -1.67754655138989   -0.31662326904037
O          -2.71998212777222   -0.90240981847271   -0.98008509628605
H          -3.03554857072151   -0.61839662204248   -0.04597671370838
H           0.46112128732618   -1.54042694823022   -0.25213600382412
O           1.24803010895525    0.33026775368160    2.43188037421319
H           1.34927926640471    0.90394145307063    3.19273722681746
H           1.36676751206467    0.88551394147331    1.64520471381255
O           1.48650133035643    1.39158930826767   -0.16061589984883
H           0.51215806990230    1.30528715166114   -0.17013164223376
H           1.71052139441647    1.51889637780781   -1.11681993926402
O          -3.16850104011294   -0.00607856259461    1.34202297820691
H          -2.72546242667004    0.82563601880713    1.13639927270145
H          -2.51913126799215   -0.50600218357844    1.89561670058149
O           1.89472644534596   -1.19892739003703    0.03684339804924
H           2.02364781154107   -1.32287294011153    0.98358640749994
H           1.89237566531152   -0.21264756306877   -0.09757507346079
O          -1.06492361583027   -1.24807319029560    2.38478739553207
H          -0.90644685434468   -1.73768918073732    1.56764903046343
H          -0.29236531476366   -0.66722404019299    2.49402720135950
N           1.60831531179183    1.24649394247342   -2.82667825268625
H           2.34053744223931    0.68483380883135   -3.24391615999843
H           1.44625229113466    2.03846576248314   -3.43642016976967
H           0.75835496636136    0.68245993187162   -2.82705137809123
