    26
        -50.46034256  Gyration_radius:  2.4236243213 Dipole_moment: 3.227
 S          -0.85100534225261    0.28580119483827    0.12692060330909
O           0.57323804356042    0.17425391656931   -0.19283001058878
O          -1.15722268700778    1.53775414436316    0.78478227089634
O          -1.59253871743755    0.21510627657521   -1.25207174590506
O          -1.33676950163094   -0.86954656007177    0.87330418113991
H          -0.47922373388645   -2.05140677735794    0.93715435447307
H          -1.08032543645834    0.83776107139343   -1.84864726769915
O           1.96196111168080   -1.04879934814146    1.65481676239300
H           1.70593880890510   -0.47791758203543    0.89827884640175
H           1.50775386455547   -0.61492488550677    2.40285775008001
O           0.16007752072628    1.73200477704107   -2.35759101750758
H          -0.07593997496991    2.60586512024053   -1.98667404170199
H           0.71629541687152    1.31038961394188   -1.68374820719920
O           0.07122451768804    0.40788614426192    2.95923812626494
H          -0.31793379255084    0.96175761966560    2.26322928498913
H          -0.65346537700290   -0.13615767083464    3.27689652158924
O          -0.61009145443293    3.69013393646472   -0.68732358779425
H          -0.91150251784778    2.97320775893535   -0.09203523951113
H          -0.12774489037236    4.30908251513999   -0.13678080544742
O           0.30402097385480   -2.72160886908461    0.80089297767955
H           0.38217205392218   -2.65721751030249   -0.24883042874885
H           1.10319170530180   -2.17135671547804    1.21075990686361
N           0.21666432313751   -2.20486396375123   -1.69379974125387
H          -0.59992816294594   -1.59977022866836   -1.64701399606445
H           0.08520245660441   -2.87597641602135   -2.44058613972360
H           1.00595080183687   -1.61145755204738   -1.92119935685121
