    26
        -50.44768386  Gyration_radius:  2.59797380872 Dipole_moment: 7.697
 S          -1.17525714617567   -0.85906760847808    0.09881667108359
O          -0.71137775548669   -0.59018999364543   -1.23915820739353
O          -0.21176500106000   -1.43194133804698    0.98310787413826
O          -1.71623414287623    0.46800690737010    0.70230556231151
O          -2.43767184519693   -1.71511167937378    0.04601136217889
H          -2.99288172762134   -1.28541637135664   -0.71608892119454
H          -0.94352728719641    1.04862817507360    1.00372240482507
O           1.40461793018332   -0.02105304820163    2.84061210208890
H           0.69379772318537   -0.67129238316689    2.81193684419785
H           2.09237947709435   -0.42457801598365    2.25076918294951
O           0.31384860245762    1.82489029461549    1.44906363922366
H           0.13122039758962    2.56045599326000    2.03736170396409
H           0.81670651389927    1.13433845083013    2.00644468521676
O           0.94393436536294    1.56450307886267   -1.29082509038447
H           0.35262619329200    0.79912275537125   -1.39078198501812
H           0.84421787885290    1.85747208330292   -0.37549780016778
O           2.65974878509208   -1.34124970877093    0.94884132067244
H           1.76925839147639   -1.64038150021835    0.72709399872470
H           2.97091470276384   -0.80409199021911    0.19269488616905
O           3.23731750254303    0.16050440428107   -1.24687966652122
H           3.26798710425620   -0.31390021279482   -2.07854481035093
H           2.47102311415821    0.77207008305224   -1.30764743289979
N          -3.43915051626254   -0.43133919756346   -1.91315875228612
H          -3.90121225908365    0.43017438613237   -1.65476945900463
H          -3.94888509914093   -0.86777309924258   -2.66974034494183
H          -2.49163592205015   -0.22278044515600   -2.21568974753263
