    26
        -50.44960177  Gyration_radius:  2.53994036136 Dipole_moment: 8.366
 S          -0.65690361144831    1.75427669436284    1.83806397150819
O          -1.43129707924162    0.93687067711568    0.91389279750846
O          -1.36313893360599    2.24412759342531    2.96125527629301
O           0.56671532248919    0.87880812867326    2.27178615882726
O           0.00119716834130    2.89407574788362    1.07572416680927
H           0.47269344731552    2.55450290808011    0.20526453579530
H           0.18009261687985   -0.04972012836151    2.37604785218403
O          -0.64864793674335   -1.34512044781935    2.10591386430937
H          -1.32826762604169   -0.82709572602214    1.64967482060506
H          -0.14480839177555   -1.80534395608215    1.40396855555850
O           1.05504247290783    1.95915241200982   -1.00002333697015
H           0.29696474086925    1.53577533969513   -1.44547125685762
H           1.63190754034668    1.23166396810127   -0.65970323868107
O           2.31250413923359   -0.01254554650921    0.24354510484057
H           1.84543673345543   -0.86216660684798    0.14920295601263
H           2.08921463554342    0.31507405877757    1.12343086452328
O           0.80188385614571   -2.30401709586500    0.02135199067595
H           0.31030138751007   -2.15569914513195   -0.84216755955599
H           1.20652884414388   -3.17090672923702   -0.02771737791655
O          -1.35175295192262    0.88811817064923   -1.69911252285762
H          -1.45679637741480    0.86270958869123   -0.71873131641846
H          -1.98931901964797    1.53057653525073   -2.01516027309952
N          -0.46605956970984   -1.84997258104166   -2.25814732139658
H           0.14605653564454   -1.83951403577375   -3.06472189569342
H          -0.83111306276209   -0.90652262628950   -2.13960095015383
H          -1.24843491050846   -2.45710717772511   -2.46856586584811
