    26
        -50.45614457  Gyration_radius:  2.46850121135 Dipole_moment: 1.379
 S          -0.62394578935910   -1.16371820413718   -0.88542165241321
O           0.76368376546313   -0.96055750615710   -1.23063707619460
O          -0.85468412586335   -2.22531216014777    0.04926420971125
O          -1.20331024075437    0.14092340610471   -0.33801003658953
O          -1.44971716101209   -1.42435939660393   -2.14660851838612
H          -1.37635988248981   -0.58228864812360   -2.70271844371085
H          -0.48028733165245    0.82083183403426    0.06532678081622
O           0.43177335973034    1.67310715138414    0.72713426220916
H          -0.08545775549184    1.73781583803724    1.56172298561797
H           1.18023599859297    1.03041029246568    0.94684602379462
O           0.99735809617837    1.54662658558530   -2.09706938317069
H           1.13111454150016    0.62279841754093   -1.80883632717837
H           0.86602331006538    2.05227873134275   -1.28734512047850
O          -1.09294991575407    0.73242298952741   -3.46879807723134
H          -0.76929169915537    0.54744993342442   -4.35339963685716
H          -0.34743210930346    1.18048529506902   -2.98901408202446
O          -1.22932439767671    1.02750038484371    2.69097303610186
H          -2.03907456942450    0.95679026141085    2.18042740830083
H          -0.87886788655167    0.11818356024491    2.76182216992156
O          -0.33154136079268   -1.55988611840530    2.55338717802922
H          -0.70861840790186   -2.23416766695354    3.12169868907178
H          -0.53297078675605   -1.83891613419612    1.63291570313685
N           2.07241104181589   -0.29445933938534    1.24216941533441
H           3.06340752837701   -0.31146304177318    1.44321731282389
H           1.91004638370768   -0.77993516531135    0.36344321881978
H           1.58777938449877   -0.81256128982188    1.96750995052753
