    26
        -50.46034250  Gyration_radius:  2.42366038427 Dipole_moment: 3.220
 S           0.63722598845682   -0.60613243165860    0.22067469528516
O          -0.49453446276187    0.32248326367870    0.21791553849507
O           1.40747905426740   -0.51054610010545    1.44196146493359
O           0.00235108245916   -2.03425238198847    0.10337769897114
O           1.46433782607327   -0.46475100098903   -0.97257103997753
H           0.92748036862338    0.31301257378534   -2.08678978507236
H          -0.75034796461314   -2.03340459058339    0.76620441375841
O           0.04596457249510    2.61912500961400   -0.90990003270723
H           0.93622323922325    2.69915265426650   -0.51605745256745
H          -0.36368396275789    1.92071231496638   -0.35476139801171
O           0.02121329538159   -1.10648098035441    3.63801929401307
H           0.63863752925463   -0.93684319129147    2.89696852876820
H           0.19146308834296   -0.42380784284823    4.28902363887697
O          -1.86744566965047   -1.42110714010770    1.75354134940439
H          -1.69917915350745   -0.54581270868887    1.37044391716319
H          -1.38595899483959   -1.42644852701408    2.60502500105420
O           2.30863460911809    1.85657042642378    0.39326760983787
H           2.97656598965817    1.51309216124268   -0.20500897904122
H           2.02759761755457    1.09147857731711    0.92071966704067
O           0.30514524119141    0.88153074506165   -2.69604895243264
H          -0.56645860369553    0.29316703774242   -2.61934938212076
H           0.16578739571319    1.73187324537573   -2.09049092572353
N          -1.58051369088890   -0.75191607671746   -2.17152363289961
H          -2.21460352658701   -0.30419457717416   -1.52015590597539
H          -1.01178244509284   -1.39757861609826   -1.62855048565508
H          -2.12159841303540   -1.27892183409210   -2.84593485547801
