    26
        -50.45067395  Gyration_radius:  2.45795712341 Dipole_moment: 5.755
 S          -1.32795511206961    0.18098510423774   -1.63913438642299
O          -1.99258055551999    0.32630656590937   -0.35611031328838
O          -2.13281541641906    0.28672274698584   -2.79672620208474
O          -0.17531864128798    1.20493637753387   -1.70274156082390
O          -0.60064115608414   -1.18417455235769   -1.65473184019214
H          -0.29433110175633   -1.48547996699508   -0.72941250350152
H           0.10022209310490    1.56981852641585   -0.76810231582305
O           0.18500026326279   -1.92430339310842    0.64975526976932
H          -0.55426896325769   -1.72433474642976    1.25806231328330
H           0.92384463194309   -1.33652867889585    0.89336737989106
O          -1.67107882908481    1.77446484590805    1.94845638466198
H          -1.71215364851981    0.98122919554499    2.49340263820121
H          -2.07981581542240    1.52359209598923    1.10612544655316
O          -2.08555147889786   -1.12158493353306    1.85660251757907
H          -2.16924585959817   -0.61359522301203    1.02010165084683
H          -2.82332530447777   -1.73247456928039    1.87886850518781
O           2.22221279871543   -0.14570068870313    0.88492064516431
H           2.36033626657624   -0.21615760503738   -0.10874142113372
H           3.08524083150624   -0.20944916735499    1.29545259812735
O           0.58800376135533    2.00563102438376    0.54816426712844
H           1.18931759615739    1.29893939913705    0.84690991224199
H          -0.18024359071492    2.02443084847045    1.16462720268454
N           2.34461246477423   -0.35520628306713   -1.75255653054257
H           1.64194303685919    0.32503739330768   -2.03075552546843
H           1.98015214227508   -1.26690062822089   -2.00443571097823
H           3.17843956660579   -0.18620367784483   -2.30136842108036
