    26
        -50.46135640  Gyration_radius:  2.48821391646 Dipole_moment: 3.165
 S          -0.84534781023573    0.49035463961392   -0.32752139044258
O           0.31463796646347    1.16987170895690    0.23780434685214
O          -0.59464915472466    0.11520076699381   -1.71406287708678
O          -1.17912677487467   -0.70014676868415    0.47740403409585
O          -2.05293432023146    1.43221707308556   -0.30297547758421
H          -2.42695813664592    1.32474494435164    0.63448207413105
H          -0.20513010190176   -1.75401661702564    0.31744768011419
O           0.10498841824341   -2.33724169062780   -2.44754730635710
H           0.89456714924718   -2.09215754108823   -2.94239564543381
H          -0.38676561231639   -1.49710455223472   -2.32317780533793
O           2.28258533900827   -0.52382811586723   -0.03110151038735
H           2.43246149195151   -0.40156207570733   -0.99153479377665
H           1.64953812789629    0.19928765674780    0.20075784906535
O           1.88281076276610   -0.00326392459819   -2.63581770236953
H           0.95412768534658    0.16611588931610   -2.35760097947733
H           2.19758872934419    0.81255045462278   -3.02700541333036
O          -2.69471681618399    0.88355192496623    2.08691483347366
H          -2.40503047109899   -0.02079335120563    1.90828939738118
H          -1.93311027805174    1.31646413602739    2.55779791376444
O           0.60373148939902   -2.36900571946257    0.04515387214271
H           1.42238763643943   -1.68772766955723    0.07800562345700
H           0.43404907428469   -2.54721315372573   -0.95430740130823
N          -0.37311253044831    1.91983140545627    2.89857545341867
H           0.21797548053393    1.45054187678523    3.57314340770865
H          -0.30492026039567    2.91503776378166    3.06960567966268
H           0.01035289614881    1.73829091909247    1.96966612761347
