    26
        -50.45516431  Gyration_radius:  2.43690777156 Dipole_moment: 7.779
 S          -0.32920601658180    1.37628332628076   -1.31620041273057
O          -1.08816114875281    0.52876282718266   -0.40330306771103
O          -0.85319655889906    2.69889313206991   -1.45474959525912
O           1.12218691780530    1.48580955993462   -0.64754304732274
O          -0.07116967086268    0.65854540847968   -2.57315296018103
H           0.18834867894280   -0.70511251696307   -2.29031152511285
H           0.88160728573902    2.09025448547711    0.13078477599776
O           0.05763988886718   -1.38499948625175    1.91406170758630
H          -0.63926548275875   -1.72237365668238    1.33596136465101
H           0.81618852770549   -1.22017147764197    1.33605609815637
O           0.05722212602943    2.91405756845075    1.13391268623711
H          -0.59084906308723    3.14955815046663    0.45449128089233
H          -0.37822432243662    2.26183235897441    1.73193877102559
O          -1.68964843665702   -1.93878074229325   -0.27653130583938
H          -1.53287405994076   -0.94878420747211   -0.28250386549918
H          -2.63813097596799   -2.05151877049694   -0.34871490201554
O          -0.86057735808004    1.01821214633046    2.79864159198900
H          -0.48019553560589    1.07362106760581    3.67692167324791
H          -0.58663216529211    0.14860196681625    2.43645005356042
O           2.09150926804021   -0.87124819780442    0.00077965918597
H           3.01793522315284   -0.76343835360220    0.22238830944054
H           1.75091117075980    0.03163743709845   -0.21772654195250
N           0.39856829233453   -1.74588551638902   -1.94486238120498
H          -0.44506296319284   -2.05457596804821   -1.41555547672659
H           1.18687179552472   -1.66705324372007   -1.28098560018880
H           0.61420459320756   -2.36212730781936   -2.72024731019817
