    26
        -50.46135639  Gyration_radius:  2.488196511 Dipole_moment: 3.165
 S           0.16228576874122   -0.95195028590026   -0.36024801315061
O           1.19714529581031   -0.13943522212492    0.26892548011997
O          -0.70940317030983   -1.54280612016719    0.64835025436155
O          -0.62162035455792   -0.13413170136644   -1.30526138035090
O           0.81425712564624   -2.09185703149097   -1.14852139080324
H           1.04692181458406   -1.66884038279969   -2.04135700575951
H          -1.46869029675112    0.81836817650484   -0.62586937964579
O          -3.09142242987616   -0.54978186524149    1.26420213588040
H          -2.94940445509685   -0.48095175604125    2.21470586252071
H          -2.36936468773040   -1.13100270022955    0.94167735459831
O          -1.99775268774918    1.40759657657641    0.06634124372868
H          -2.60212621878417    0.72223880517770    0.54043806672805
H          -1.23967091772175    1.65577740080639    0.77316748900424
O           1.21357398391270   -0.70147299475793   -3.22988633454988
H           0.37854291827251   -0.25561721620493   -3.03586284054407
H           1.92258350392029   -0.09700952586516   -2.88189111728332
O          -0.10318156109459    1.63392845421215    1.67496973215204
H          -0.36970994572875    1.04846437477735    2.41389969604817
H           0.53502333325452    1.08308572799847    1.15846252490888
O          -0.79079041622155   -0.53970609734495    3.09563535867168
H          -0.67669245042565   -1.01264967295569    2.24011748586544
H          -0.17296738995360   -0.94162756620402    3.70752788476681
N           2.86169570526359    0.85319832790034   -1.81926906286348
H           2.37628831302246    0.56325084670183   -0.96888213650724
H           2.82042334041301    1.86339013229223   -1.86867237454062
H           3.83405588969017    0.58954131638660   -1.72269953348308
