    26
        -50.45412243  Gyration_radius:  2.40429411539 Dipole_moment: 2.772
 S          -0.64881413380178    0.82331306628341    1.19794170409725
O          -1.42952201045000    1.81707784393954    0.49401322120271
O          -0.74365631141388    0.81380700762106    2.61627187237962
O          -1.06350099981083   -0.57083135867433    0.64208189973507
O           0.81195753683669    0.97292374032905    0.77952091493519
H           1.14283416735840    0.25831715594655    0.03086450523402
H          -1.69913734986834   -0.41765164222394   -0.13547994781658
O           0.74506566534870   -2.71482904923652    0.44889633067099
H          -0.21237484450661   -2.63644178299095    0.41947644500177
H           0.99710833613603   -2.31786027338772    1.32518923135243
O          -2.50754285040579    0.12005281479560   -1.32367963419348
H          -1.81972344994462    0.16276013895051   -2.01709011404041
H          -2.56398657331896    1.00584009132606   -0.93685628153302
O          -0.23752037092505    0.40592435522413   -2.77861138630377
H          -0.05131531659070    1.29620679331888   -2.37384765508504
H          -0.08855997476665    0.49554576209342   -3.72103736624177
O           0.16903444506785    2.63335408682259   -1.45535383555138
H           1.02836073842926    2.64346558752944   -1.02585747343131
H          -0.47670287761938    2.49589593090882   -0.73015644938710
O           1.49660717963678   -0.65546145176105   -0.93911087696895
H           1.26515354802881   -1.52996264360407   -0.50067449510769
H           0.87525818318842   -0.50946216174624   -1.67601282522124
N           1.21701646430563   -1.32962624203431    2.70429323558390
H           0.46011652704260   -0.65105251927798    2.75636947522477
H           2.07513738753137   -0.80051090183209    2.60399134750239
H           1.25870685453508   -1.81079434831802    3.59485815795659
