    26
        -50.44840800  Gyration_radius:  2.48124356059 Dipole_moment: 5.792
 S           0.11329221575565    1.51292873284081   -0.82351317191761
O           0.13642672891527    0.75947327577463    0.40626624341371
O           1.03834442727935    2.59876117038266   -0.87790183923825
O           0.40727727258856    0.50989826433820   -1.99107103880610
O          -1.29848560706927    1.96816349360131   -1.13504265851590
H          -1.87756711307836    1.08871615399853   -1.05582837038310
H           1.06813075024056   -0.15450726513449   -1.66505881161944
O          -0.49739507339956   -2.11094450668916   -0.43627232810947
H          -0.54172122544470   -2.69621053834305   -1.19493886995942
H           0.39907170734671   -1.74417300994806   -0.41768720335312
O          -2.49467271600897   -0.19392447178789   -0.82332920061850
H          -1.78555127497986   -0.85086165162817   -0.68841562290002
H          -2.93907238148744   -0.10431714156090    0.05877317041703
O          -3.29119177373458    0.08546496889135    1.68479639312488
H          -3.24295837810561    0.99930648983332    1.96909859343937
H          -2.47972330266748   -0.35560583594960    2.03269164190325
O          -0.90081884639240   -0.98595934134563    2.17794501714284
H          -0.44552095037345   -0.29393369526219    1.66727014212412
H          -0.87860517450133   -1.75927099019990    1.60433702110790
O           2.13327394547482   -1.12960616697101   -0.93281541168595
H           2.84299296170572   -1.39701693332317   -1.52065307077666
H           2.51252369097793   -0.40443637092776   -0.33287773037121
N           2.99758673253571    0.92413861642984    0.43489431165003
H           2.47427720937787    1.66041309623608   -0.03814444327848
H           3.95791477679096    1.23043485689231    0.53779268198786
H           2.59217139871204    0.84306880969985    1.35968454597302
