    26
        -50.45847310  Gyration_radius:  2.50669868963 Dipole_moment: 6.441
 S          -0.85105861429793    0.33132943046995   -1.85481317582489
O          -1.07847047417216   -0.67183647064544   -0.80033833635527
O          -1.89442976342361    1.30857292137991   -1.90297910975307
O           0.51703417897469    1.03636818364515   -1.46834701704213
O          -0.50800375644874   -0.31875639270619   -3.12050101189386
H           0.79512700279143   -0.82220738950878   -2.83354822923453
H           0.40139112967218    1.52486696012147   -0.60335501016552
O           1.22685279153320   -0.23999108360739    2.21089785051028
H           1.82261375676679   -0.42273934462267    2.93873431026275
H           0.31307410496099   -0.35432770216478    2.56273159894539
O          -2.28825169857025    0.90824879587327    0.84638374586941
H          -2.80315817813581    1.45590970088196    0.24572971366707
H          -1.90894263118954    0.21759152742617    0.24654579648166
O          -1.28519036049594   -0.20033462412938    3.14719365505306
H          -1.79642272977120    0.05097578395604    2.35941180403636
H          -1.48920938644251    0.45736374258114    3.81479036485474
O           0.18995635037482    2.00422985738353    0.90667132859913
H          -0.75286792754119    1.75471474665440    0.99954025701735
H           0.69287298963939    1.32895866688537    1.38950200512776
O           1.11669693381630   -1.83511487963796   -0.06412508579094
H           0.19508043640086   -1.55143199969634   -0.28417764770381
H           1.34093638849521   -1.29552218730910    0.71317042608256
N           1.80581901857553   -1.11461986473326   -2.47146297398415
H           1.65243707174508   -1.44905319876904   -1.45777332703251
H           2.36638383242340   -0.26708540859406   -2.46716249437020
H           2.21972953422463   -1.83610978115716   -3.05271947746528
