    26
        -50.44581472  Gyration_radius:  2.56071930685 Dipole_moment: 4.163
 S          -0.87250898012780    0.84347780043140    1.93481521120914
O          -1.01242541019804    0.78846718103473    0.48874349220125
O          -2.05708351698231    0.58179610372038    2.66388877816741
O           0.28588819051206   -0.11083943116397    2.31838106665928
O          -0.28615561093098    2.20563723932950    2.32395881814878
H           0.65060522954442    2.24822816074310    1.94177641996356
H           0.04367848964002   -1.05590014440830    2.00567082876410
O          -1.98086666486628   -0.30396581800419   -1.75382275393045
H          -1.70639935396849    0.06729506675764   -0.89231816748244
H          -2.93921134876955   -0.30256446320601   -1.74886195993567
O          -0.24434481634437   -2.41458931159547    1.43976843672467
H          -0.05512612552022   -2.34799674450005    0.44099895894891
H           0.37491065404642   -3.05525980736113    1.79562464106205
O          -0.00687495498482    1.19694424449284   -3.00882097093971
H          -0.36752517467953    2.08478501581403   -3.02910841300536
H          -0.73163496962823    0.61472650207462   -2.71915891229042
O           1.33982595152956    0.59814513387281   -0.71623586980832
H           1.13850034137527    0.90124621483325   -1.62169371427000
H           0.46740467954872    0.60679070173054   -0.26958906616677
O           2.08323072844031    2.04770151620862    1.36223578199895
H           2.47138851983847    1.39795529598697    1.95349444144988
H           1.95279898803960    1.58278506529100    0.49902612891400
N           0.31705963518947   -2.13773955499310   -1.09832755543142
H          -0.53151887554928   -1.78281664797959   -1.52921734292012
H           0.67853261724568   -2.88186444248848   -1.68063632101063
H           0.98785177762227   -1.37244486661282   -1.10059196700389
