    26
        -50.44581479  Gyration_radius:  2.56036587621 Dipole_moment: 4.151
 S          -1.37871255502628   -1.30309914335775   -1.26826303375987
O           0.00206305308374   -1.03388079078166   -0.90106209764970
O          -1.76427288883419   -2.66330092543848   -1.20101039997968
O          -2.27096480392253   -0.38722233701496   -0.39386183049052
O          -1.63853463450829   -0.73430940459371   -2.66816855131340
H          -1.54558051402516    0.27207878991225   -2.60430952565715
H          -2.10129534206208   -0.61497752160433    0.59046094108408
O          -1.46233649173980    1.78708514995793   -2.24949066139693
H          -0.71425198341866    1.86432665618524   -1.60703351069196
H          -2.26199119976212    1.93994834716555   -1.74005408678237
O          -1.76511950405809   -0.85211890846418    2.03267230756990
H          -2.40991683210170   -0.41838902625718    2.59539438438241
H          -0.87473593067976   -0.38373275380678    2.19238247729271
O           3.05517220003173    0.94272025923700   -0.50768895526249
H           2.87886017278406    0.11872895970950   -0.01966377672521
H           3.35527433785447    0.67947402944457   -1.37912440144334
O           0.39767418141902    1.53592845373205   -0.39181202968017
H           0.23818186732035    0.57727850963568   -0.51962862968850
H           1.36421763191259    1.62425870835780   -0.49333530228538
O           2.15709350670832   -1.42603352334090    0.63515294899082
H           2.43590986644233   -2.34242360539590    0.60643793521717
H           1.34747546990676   -1.37328094795101    0.08997983523621
N           0.49619369589144    0.42421297145413    2.33504862429414
H           0.78267287547250    0.86735547712553    3.19818933119218
H           0.45694168940434    1.13356237166344    1.60645929387696
H           1.21998213189308   -0.23418978558014    2.06232873366774
