    26
        -50.45802907  Gyration_radius:  2.38823122129 Dipole_moment: 8.712
 S          -0.13806675605063    1.60818406638249   -1.23039903257757
O          -1.46903957063369    1.20903370894990   -0.75628916263191
O          -0.09909912633435    2.85305178051953   -1.91482521537198
O           0.77888681716301    1.67245343499331    0.05123918687166
O           0.46943095956176    0.49216789884165   -2.00045901333983
H           0.13123628677240   -0.83363898724294   -1.53236078195472
H           0.17949884553710    2.02422552644092    0.76517650692719
O           1.66128115260709   -1.39158159067307    0.94059059895245
H           2.14773830142183   -0.74823665119950    0.35148383212195
H           2.32846350328726   -1.84994003644016    1.45307303313264
O          -0.71343617144931   -0.43335688159484    2.26073934468330
H           0.15471696875548   -0.65288816298417    1.89513773793513
H          -1.36756375601256   -0.77401425914555    1.63449828751115
O          -2.36064190397445   -1.03851429125875    0.04431179624151
H          -2.05525220796577   -0.13404368804037   -0.27071625994484
H          -3.30884371271993   -1.05776029903461   -0.08978614298414
O          -1.09149384045755    2.20240716211781    1.71833102750265
H          -1.01955066383155    1.32979456872359    2.15910302768932
H          -1.65063383462942    2.05677025212821    0.94020507655822
O           2.83173125985928    0.16430909252083   -0.81909876601626
H           3.00745709863645    1.01782847507958   -0.41467613172860
H           2.04804082260591    0.32395184200993   -1.38908945030315
N          -0.07151978296750   -1.81424823516663   -1.07210792861936
H           0.05628677371765   -2.56269409854186   -1.74350878523084
H          -1.04404692737704   -1.77265445258676   -0.70508740477862
H           0.59441945448153   -1.89060618479742   -0.27548536065715
