    26
        -50.46914340  Gyration_radius:  2.52082657333 Dipole_moment: 4.896
 S          -0.92108235927964    0.11796615915104   -0.70458971709088
O           0.50009784528019    0.38319212632426   -1.33506504932585
O          -1.05811909632650    1.15066470437087    0.31383702158799
O          -1.90391833121370    0.17043380563886   -1.75093310137860
O          -0.81993883932491   -1.20859578241847   -0.07283467870361
O          -1.74451639704147   -2.37626361291614   -2.36169484099786
H          -2.07590294498919   -1.45894791765506   -2.27483680260848
H          -1.48282051606459   -2.59539405558580   -1.45976574832810
O           2.47304454579409    0.85874172685304    0.55684536429693
H           2.10189616426712    0.72203679021949   -0.32731463556428
H           2.07970013632752    1.71481239805359    0.84476951191082
O          -0.92245240682213    0.84799839677526    2.91786893943261
H          -1.77536282447750    0.60690714359383    3.28134508488405
H          -1.07545178986015    1.02474816111422    1.95833151426130
O           0.82716105688252    2.84187623947900    1.20402712739186
H           0.11490710532462    2.37326487684937    0.72630714442323
H           0.53127848389880    2.89310481304694    2.11604059375626
O           0.44108777654579   -1.26487561490917   -3.31008846875258
H           0.54131647432966   -0.24033517394665   -2.11708485158767
H          -0.32930188909172   -1.83351131183399   -3.04150952727655
H           0.15230372759304   -0.78811675929485   -4.09156255918814
N           0.88699530796306   -0.80896796885382    1.80905017506723
H           1.29779685482467   -1.63014777707605    2.23934556259803
H           0.19956485529546   -1.07355740392981    1.02316519754132
H           0.32858950534473   -0.25177909779297    2.48805438990444
H           1.63312755480944   -0.17525486525765    1.36829236374983
