    26
        -50.45124395  Gyration_radius:  2.47169617526 Dipole_moment: 4.074
 S          -0.75092888936491    0.10793937219184   -2.29087638533338
O          -1.15866321044860   -0.67901744339228   -1.14280287171289
O          -1.58083357821138    0.01342996793461   -3.43190366671286
O          -0.56940765707973    1.56929856542397   -1.82935818469483
O           0.69356132597391   -0.30771202775670   -2.66148008772396
H           1.27902721416805    0.08409310408881   -1.95659985230110
H          -0.89639367424622    1.73516775693637   -0.86734048142582
O           1.14056042605693    1.23090947466014    1.63341776280965
H           0.80324016854701    0.33199578773979    1.95896956321315
H           1.70833584962999    1.57110010680208    2.32565189504418
O          -1.23755917427630    1.95916479599185    0.57721435346135
H          -1.76788996407997    1.20242005692004    0.88935954293677
H          -0.37568733180359    1.86676806633227    1.02854827182097
O          -2.31219452330440   -0.47790887552038    1.20686695511637
H          -1.92917168382744   -0.66785606399541    0.32306611991784
H          -3.21752460057010   -0.79077758539869    1.18470341368048
O           2.09097734957699    0.90740200996579   -0.85248057203804
H           1.75238999254043    0.95791430445201    0.07107232466056
H           2.03788596436001    1.80083836576231   -1.20048010007840
O           0.20668443068489   -1.05545736905570    2.32722468810274
H          -0.74155971879716   -0.96000362095815    2.15503918787673
H           0.55774506711508   -1.58985516830467    1.56994769087428
N           1.03683240024103   -2.15349694803805    0.01656896686692
H           1.07653523447851   -3.14749098693753   -0.16889540000436
H           1.88966491392394   -1.74072239830693   -0.34134693900684
H           0.26437364871083   -1.76814321753844   -0.52408621534938
