    26
        -50.47297967  Gyration_radius:  2.50388760794 Dipole_moment: 2.748
 S           0.01389921757936    0.96880363562021    0.51830345689362
O           0.21280241437226    1.03969736694588   -0.92870459222897
O          -1.29883903809345    0.43506798101556    0.84837676779716
O           1.07440166495687    0.17246992488519    1.14703904891998
O           0.05898012780499    2.40018246122448    1.09083893883656
H           0.92374550214921    2.82140247683055    0.82297609214458
H           0.72482486958823   -1.31862794636344    0.86713544443157
O          -2.84046680309377   -0.73330344298320   -0.95279553882225
H          -3.37749017244988   -0.10374183745578   -1.43540575108503
H          -2.31584985320060   -0.20534159822615   -0.30812480859922
O          -0.36823193804396   -1.37392994163419   -1.86567529059967
H          -1.33928404493975   -1.33498319178984   -1.77456645195173
H          -0.08164800773744   -0.45027032447780   -1.69650602102747
O           2.85137905070141    1.00768344350429   -0.69780959830749
H           1.96636772478896    1.00059044336998   -1.10820898503715
H           2.69979984470052    0.54818461899345    0.14023789409950
O           2.28408904435114    3.41116279921701    0.21834302598146
H           2.09357004634959    3.96875175824775   -0.53900277498965
H           2.69959621496393    2.58541355352240   -0.13862690132769
O          -2.09258652066014   -2.01622801327413    1.61157315432009
H          -1.89647717402455   -1.05985170121687    1.63557634866233
H          -2.75506441811030   -2.10749966279559    0.91818156547089
N           0.31538708895395   -2.23127826550423    0.50572348134400
H           0.10116694876419   -2.04894181594620   -0.52871231494885
H          -0.60284001721946   -2.36433650056588    1.00668429097131
H           0.94876821749541   -3.01107622120154    0.64314950914945
