    26
        -50.45641790  Gyration_radius:  2.42827554475 Dipole_moment: 3.639
 S          -1.27184647965107    0.50550134535155   -1.27051226944289
O          -2.08580227843294    1.42572974753288   -0.51439142297764
O          -1.55228686312643    0.34303973667077   -2.65211651048340
O           0.20736653393374    0.94034857122637   -1.13472783226555
O          -1.34074859173654   -0.88303774678645   -0.60514065962293
H          -1.27631450775017   -0.87412041747111    0.41494797668095
H           0.43947932845543    1.38942177935013   -0.24808379300737
O          -1.03955370847894   -0.82016974963693    1.91222322661627
H          -0.06244026980919   -0.83935310387424    1.95487237140961
H          -1.32207231970332    0.07115127243665    2.18239773677681
O          -1.69764453571885    1.82106261395437    2.01746085349888
H          -1.93357233409754    1.72812790453154    1.05834728287595
H          -2.36384903727750    2.39094605804686    2.40420137838878
O           2.30995347410450   -0.92976701073102   -0.82387917936540
H           2.35093421382959   -0.01692834949102   -1.12066053416347
H           1.64041507666201   -1.34742361399044   -1.43103710811887
O           0.86467242875114    1.89990227264861    1.13010993011225
H           0.03009142453510    2.04356021914980    1.61036503516841
H           1.26984080476324    1.09316350221901    1.49998996917102
O           1.64551611622318   -0.63852390551983    1.67854197118123
H           2.31133382295536   -1.09260792444475    2.19643374344712
H           1.87444293621554   -0.81733258699569    0.71882708984576
N           0.46937882302436   -1.78713768285232   -2.58213749319919
H          -0.11914958034245   -2.50243801299762   -2.17252694341001
H           0.78068275451107   -2.12324630353777   -3.48591185137321
H          -0.12882722178530   -0.97986862480904   -2.73759297774647
