    26
        -50.45165576  Gyration_radius:  2.47224576076 Dipole_moment: 3.929
 S          -0.48803090256861   -0.31346603864055    1.59436254348045
O          -0.91541943998810   -0.85444921258682    0.32216256898953
O           0.55523205780877   -1.03928764469895    2.23703996634676
O          -0.05223700228061    1.16155314852135    1.37073118229796
O          -1.70300896469436   -0.14993153819813    2.49865231266418
H          -2.47808313387715    0.05658919897367    1.85865502116626
H           0.76755079863319    1.22712875755393    0.75025892535216
O          -0.17405103754834    1.18660410345303   -2.47902277068459
H           0.22336855808289    0.32391841896293   -2.28132112696915
H          -0.54827838709266    1.12301459004199   -3.35889261499912
O           1.79936995995677    1.29899961821360   -0.33818782529381
H           1.70520308188277    0.40118551481104   -0.75761935155799
H           1.46457835992191    1.91920366895191   -0.99514175143036
O          -3.37298819432680    0.25373589884340    0.64278002147245
H          -3.00743000599480    1.05673864571590    0.19592125104040
H          -3.02916878698575   -0.48844438628619    0.13169829415757
O          -1.88286124886663    2.14569321404796   -0.47727192465233
H          -1.36818908914432    1.82962780097810   -1.23962146411224
H          -1.26720720143221    2.14737142832443    0.26680777912290
O           1.13013642500314   -1.03424250568739   -1.34998678915850
H           0.31373255820908   -1.10674785452178   -0.81601024084195
H           1.76918528935260   -1.61395727799333   -0.86400027755639
N           2.56085823848764   -2.30656013064765    0.51542058199437
H           1.92543386754928   -1.95336077488609    1.23099486826795
H           3.48503006260551   -1.95615442255611    0.73629454735177
H           2.58727410730553   -3.31476223070207    0.60529627354590
