    26
        -50.45064837  Gyration_radius:  2.63800466268 Dipole_moment: 1.758
 S           0.61443296748960   -0.11519837684282    0.81960669410160
O           0.77272944663230    0.06749062164243   -0.60087195009581
O           0.01767178667064    0.98839597871882    1.51520075681076
O          -0.24284968185427   -1.37553696428228    1.07178275215167
O           1.95911200619501   -0.47151906114387    1.43927725437471
H           2.48294287038381   -0.98489034011955    0.70164045476053
H          -1.23830432369932   -1.04882631252623    1.08443053408735
O          -2.49400809826461   -0.31047629154716    0.98878156418992
H          -2.40695201093799    0.00596815429749    0.03705265140695
H          -2.32176325454598    0.46278491732091    1.53547303928220
O           0.21230017145838    3.49075254825638    0.57734516510822
H           0.06638785589150    4.04713112847328    1.34499151699550
H           0.21319050548876    2.57148934407124    0.90655677986340
O          -1.75242982764938    3.25837877567948   -1.25825017217320
H          -1.04433923804342    3.40043848293021   -0.59439414548215
H          -1.42606122500403    3.63195543766614   -2.07848321645629
O          -1.80701323890074    0.56261638076627   -1.34100350864263
H          -0.85363504613764    0.39522022717592   -1.26766354989265
H          -1.90371669800736    1.53998866580627   -1.35680266182104
O           2.89762089691454   -1.64285448231617   -0.56302294416365
H           2.41167217293908   -1.02837306355206   -1.12968506698316
H           2.35443678112703   -2.48004891845670   -0.55362614582664
N           1.10018927779443   -3.60516295396449   -0.37852693425048
H           0.47058554606072   -3.04062497789416    0.18544816991782
H           1.31024193056514   -4.45022772779267    0.13736795500854
H           0.60755842739076   -3.86887118237440   -1.22262498227905
