    26
        -50.44869146  Gyration_radius:  2.50654356796 Dipole_moment: 6.087
 S          -1.65938876946529   -0.28242205232346   -1.64315585957864
O          -0.86667043923582   -1.43849607700067   -1.26165628262456
O          -3.05637165493048   -0.49126696872395   -1.75502471872381
O          -1.34532437462381    0.83751442207045   -0.59776919126575
O          -1.06259975959846    0.31783943425864   -2.90937529173955
H          -0.01688054960793    0.26508826771830   -2.75289066062012
H          -1.63995339148010    0.57149939989617    0.36293847243910
O           1.16087210799111    1.63239188432605    0.24467024345833
H           0.28779455464371    1.51222572553680   -0.16189073909980
H           1.51585874876493    0.73074027338666    0.37924238874836
O          -0.43830787282079   -2.13564541749673    1.17717043672064
H          -0.67622668630959   -3.05557066348286    1.30265568823344
H          -0.65095200904299   -1.92510852305456    0.22872051733136
O           0.12240573525479    1.80704350963154    2.71064921015172
H           0.60856778532326    1.85973808312027    1.85496892074517
H          -0.17017951470606    2.69684354885866    2.91133569570205
O          -1.78068358037396    0.16700811083974    1.78623075729691
H          -1.37782480268186   -0.71919891623285    1.79446206984292
H          -1.14372025336005    0.75525534266655    2.25748403801750
O           1.97064843722010   -0.93276729659548    0.67893972061455
H           2.52271087065754   -0.96451420985817    1.46235171399039
H           1.14943970702149   -1.41168265932933    0.90220411400140
N           1.40148785439478    0.09850940049927   -2.33918126198983
H           1.36652144926238   -0.68956132825184   -1.70105669086602
H           1.74395689359354    0.90886895185582   -1.83407113885549
H           2.03481951410877   -0.11433223231204   -3.09795216193203
