    26
        -50.45018960  Gyration_radius:  2.49706899647 Dipole_moment: 5.270
 S           0.13251162267875   -0.14634018785401   -2.40634649149229
O          -1.24208527421564    0.14346606044494   -2.06435974287443
O           0.38721300294617   -0.64769963213708   -3.70350537139584
O           1.00198507304115    1.10388451707238   -2.16734664803711
O           0.67551213451892   -1.12217506393950   -1.31315340777038
H          -0.14176253073980   -1.58236888531871   -0.91547735161870
H           0.79267931720400    1.52483155084075   -1.27963494475074
O          -2.12735852210380    1.60269067239672    0.00522636194819
H          -1.34169047441637    2.15578790560304    0.11779542677912
H          -1.97473509620701    1.13581367825794   -0.83814702933781
O          -1.75883310057016   -0.34380685676167    1.70528111527673
H          -1.96258250394041    0.43345923979277    1.10853865682954
H          -2.46266667401215   -0.38032353649414    2.35397196874348
O          -1.52657069013765   -1.98375274131852   -0.41840592202548
H          -1.97021984560204   -1.41875816803951   -1.06698174202773
H          -1.62338125235059   -1.52509902342010    0.44496914905700
O           0.56375397747007    2.23176545721128    0.10921387113660
H           0.70843031757109    1.58143922874274    0.87725905459831
H           1.21642990110649    2.92520930961700    0.21864593459259
O           0.85140141978370    0.55126096209364    2.02294871500808
H           1.48069931019891   -0.15277514256300    1.72908893824858
H          -0.02289185864971    0.13066527145865    2.06782133951637
N           2.46372435244261   -1.36707666930857    1.01101440047780
H           2.38052733672140   -2.29307284039233    1.41154563932063
H           3.44957601047851   -1.16278184862183    0.90698374411556
H           2.05033402669090   -1.39424322727314    0.08305433562398
