    26
        -50.45377556  Gyration_radius:  2.46837205954 Dipole_moment: 3.484
 S           0.92333165694544   -1.56335852426730   -0.62425954919659
O           1.27262373256114   -1.25740803539798    0.73802555100171
O           0.41021349590689   -2.88325036033745   -0.83333591794846
O          -0.11340594142975   -0.51716260382999   -1.11350203673740
O           2.09537539157151   -1.30012582990596   -1.55831824982994
H           2.41404275427408   -0.35232708399233   -1.33225224758537
H          -0.86356264697231   -0.40493500404110   -0.42000630682319
O           0.13537954674533    0.47769822019487    2.31369432262635
H           0.64101711517407   -0.18322426212349    1.78384659454447
H           0.38279168412376    0.33366918897024    3.22824997932786
O          -1.88254866721669   -0.33508579918975    0.69487319055171
H          -1.34141658612660    0.03918210861421    1.41650478376285
H          -1.95535501064297   -1.29663698547719    0.88382396543617
O           0.88578247571131    2.31312929468245    0.33529099975272
H           0.65913740334122    1.81427581800434    1.13381374010826
H           0.06138035994659    2.33618894335952   -0.20284669221806
O           2.73599959555472    1.07776013566555   -1.00828750511345
H           2.81419205770087    1.59992098271068   -1.80951443285252
H           2.04401992065807    1.53980784737233   -0.44413513951864
O          -1.63040070909519   -2.98203401665654    0.88871182982683
H          -0.83651201042885   -3.06107744460747    0.32242468345214
H          -2.25636385584908   -3.63075742883779    0.56061197382669
N          -1.43190966465340    2.15714752110977   -1.10620114095936
H          -1.15956391602460    1.48973836764638   -1.81792900836201
H          -1.93813688603602    2.91230956072635   -1.55067968576582
H          -2.06611129494679    1.67655540843061   -0.47860369130429
