    26
        -50.47166713  Gyration_radius:  2.38841795047 Dipole_moment: 3.173
 S           0.60794031493354   -1.24112919117714    0.33156640467882
O           0.21016672319750   -0.35944942214871    1.42399728238409
O          -0.45036176665907   -2.17871441070091   -0.01096309898839
O           1.01731995028195   -0.47171133808405   -0.84656673373484
O           1.83597304749439   -2.05984039552851    0.81037203869461
H           2.55436439816616   -1.37999949460327    0.85246085320605
H          -0.34896045897355   -0.59784689886121   -2.40286216915782
O          -2.46825364985001    0.97113686405286   -0.99329727677745
H          -1.68393234624700    1.55154120682773   -0.86065045341448
H          -2.63050041904864    0.55209639388981   -0.11543915962566
O          -2.43880886752793   -0.46414010699417    1.24650589853749
H          -1.48810831139227   -0.35740652027267    1.44941408501174
H          -2.54487500807916   -1.40510761690054    1.08794330896711
O           1.53770315919857    1.86287965055547    1.77404887797773
H           0.98705914993589    1.04773909004032    1.70810221297007
H           1.51441009740786    2.12815138022288    2.69454644882888
O          -0.02644062452715    1.99191765651702   -0.66427527112286
H           0.36196477700369    2.36393932171921    0.13590169544445
H           0.41398012189807    1.12775156169303   -0.77360016294552
O           3.27365664234132    0.10431859623342    0.54320993620277
H           2.78605934580652    0.13345794964125   -0.29173332703242
H           2.90170076215174    0.83363308525574    1.07194399186154
N          -1.26986380965251   -0.96810369174259   -2.15560369669336
H          -1.06320141746820   -1.61518012730849   -1.33677471735938
H          -1.71554500068838   -1.44392674757711   -2.93280749033563
H          -1.87344678960169   -0.12600682464022   -1.74543948744218
