    26
        -50.44675858  Gyration_radius:  2.46735369133 Dipole_moment: 6.408
 S          -0.97842104280958   -0.93921979121230   -2.03067389509510
O          -1.94157537547143   -1.04069766015977   -0.96187641721138
O          -1.43346909799711   -1.14055882449764   -3.35523401440792
O          -0.25959487033095    0.43221508690446   -1.90917094097449
O           0.20155460462922   -1.90279032036602   -1.72182730385328
H           0.05361932308006   -2.32819682033497   -0.81893188182651
H          -0.74012040260391    1.15702924217471   -1.28784853690280
O          -1.82259188709079    0.08582850394332    1.36407801912359
H          -1.90015280688908   -0.42285827812858    0.51620195793587
H          -2.54955295916166   -0.20948163988792    1.91388172561653
O          -1.18724335418936    2.09975478837546   -0.32604351932425
H          -1.60336770352068    1.54313852746231    0.35736724391560
H          -0.32872601062623    2.41247253756750    0.08083191199980
O           0.02666994529288   -2.92464025738400    0.61569984810732
H           0.68158762056966   -3.61419120973153    0.73771319819130
H           0.31326454657503   -2.14984746999748    1.17528028587431
O           0.76780015833000   -0.70341992305923    1.78012363357500
H           1.27162023090459   -0.32699761802087    1.03514198069661
H          -0.11083343942173   -0.28362919904022    1.76338252331550
O           2.03382553282493    0.09568058298854   -0.53391854661183
H           2.54241091578838   -0.62318002597628   -0.91405401573682
H           1.26879017834104    0.22045323863012   -1.12934208822629
N           1.17041846867341    2.62964775565920    0.81407783735759
H           1.77070674228648    1.94701644202914    0.36228052250504
H           1.18247710672725    2.43996016544923    1.80868621637455
H           1.57090356608052    3.54651215661222    0.66417426558590
