    26
        -50.44034381  Gyration_radius:  2.81293128385 Dipole_moment: 7.673
 S           1.73446284715368    2.37483066347932   -1.04381170199832
O           0.87089770527503    2.23555311038628    0.11573441797334
O           2.54737314624862    3.52819953627127   -1.08757258472823
O           2.61397906898309    1.09018360284030   -1.13289067106567
O           0.86246944797952    2.32480948433598   -2.31014355362702
H           0.42150392696260    1.42730228619665   -2.47064118009061
H           2.20358097343235    0.38155613856812   -0.59053231196717
O          -1.24440327951222   -0.78215941733122   -0.48738176150755
H          -1.63836683960207    0.08175739925026   -0.26399871475694
H          -0.33778814520273   -0.74901262697399   -0.11078499891310
O          -1.76114691628469    1.83747253977482   -0.06494530608070
H          -2.21316432877750    2.43844370307888    0.52829769274502
H          -0.81271308754165    2.07478210284405   -0.02231928102988
O          -0.32829908974223    0.11260046410939   -2.79657899747975
H          -0.71021626974979   -0.31274102558350   -1.98354698411804
H          -1.07190252487192    0.35061450422776   -3.35376649614073
O           1.18902321819845   -0.33215975042171    0.54885832842710
H           1.23058966766039   -0.86585065726645    1.38111954305675
H           0.98056980284146    0.58335566817373    0.80195568778095
O           0.93009235344417   -1.90257576770233    2.65672591776339
H           0.01920745800628   -2.21218991950068    2.40977429272601
H           1.48741310784589   -2.68163748570078    2.67950599984704
N          -1.50039715156551   -2.70249444623535    1.77161741713589
H          -2.26985132698855   -2.45735519752088    2.38224935005966
H          -1.59855571137716   -3.68069702704501    1.52957684364711
H          -1.60435806281778   -2.16258785226223    0.91349909234120
