    26
        -50.44503143  Gyration_radius:  2.69351293952 Dipole_moment: 6.905
 S          -2.76258183784402   -0.02589114245012   -0.70740482196633
O          -2.07607604742500    1.21962896406401   -0.96245525356135
O          -3.79272164016695   -0.38142734313944   -1.61320576380471
O          -1.67743035015657   -1.15864776546920   -0.66677042842639
O          -3.24991769618470   -0.05847764411397    0.74492485460255
H          -2.50826650543669    0.39999764583683    1.25617712948213
H          -1.09729996034842   -1.12344631370030   -1.48697837438692
O           1.06002511059045    0.27508422173480    0.78617355958715
H           1.04692138069685   -0.66973584924588    0.52508005341852
H           1.83792625620144    0.38462251587023    1.37695787387032
O          -1.26794367290645    1.27000107920070    1.64161287546227
H          -0.40741727919111    0.83679960579666    1.43073796561614
H          -1.41199938398927    1.89267972405532    0.91881471816792
O           0.52375881416589    1.32285472628937   -1.66058343571976
H           0.87708483649332    1.07699981656914   -0.78292375482350
H          -0.41876033600755    1.51282830916729   -1.50153879576747
O          -0.02616280867944   -0.99536021003616   -2.63932054596986
H          -0.45382943702851   -0.88368740569568   -3.48996422629520
H           0.31140697452999   -0.08430951671814   -2.36688340429251
O           0.87163723449869   -2.25104956157082   -0.16220072362689
H           0.93270624190118   -2.10128111847886   -1.11292116340533
H          -0.06582722550218   -2.38072064717395    0.01661888649093
N           3.22692743373696    0.47061106599280    2.44665199354873
H           2.95282848134825    0.82834520877516    3.35311301321904
H           3.95013753815272    1.07445154419938    2.07650545403883
H           3.62487386872150   -0.45086990963776    2.57978230460387
