    26
        -50.44800550  Gyration_radius:  2.432411433 Dipole_moment: 5.193
 S           1.07174676854362   -0.37812099386975    1.29475089077225
O           0.17840722184599    0.65677962427543    1.75748149307811
O           1.39603019246051   -1.37225312043409    2.26256635561356
O           0.45781415369119   -1.06813839179701    0.04789031425680
O           2.31125390127608    0.30648234438635    0.70775996194069
H           2.50662624531502   -0.04585807540043   -0.23752547704046
H          -0.15727278468594   -1.80838017049273    0.45964504121521
O          -0.93310897869666   -2.64840911095511    1.36488890983282
H          -1.61926433966867   -1.96199816960064    1.62277633081436
H          -0.30241005189386   -2.69285069826342    2.09442723007003
O           2.56674022116180   -0.54481226089969   -1.66179843106066
H           1.88997366881729    0.04906102049120   -2.07501040488781
H           2.15029390845252   -1.40983733336989   -1.61439063244351
O           0.21721588187134    2.40794230119088   -0.20890808317187
H           0.93509446335615    2.99533416274078    0.03583344816848
H           0.12712773715690    1.78274543556282    0.54297470554558
O           0.66550402373369    1.09753415410820   -2.50060255035722
H           0.89725390490792    1.76788695392606   -3.14569123551342
H           0.44838138300229    1.57452408745833   -1.66698062632094
O          -2.31436727009342   -0.50709241622162    1.82986155677613
H          -1.55414030241100    0.03396724893172    2.08908456520260
H          -2.50838463360002   -0.21308546257665    0.90994114235277
N          -2.21054873063480    0.39410842358262   -0.74189566250356
H          -1.94470325117033    1.36730899105907   -0.64733812725530
H          -2.89359435657670    0.32896918813614   -1.48603260635962
H          -1.38166897619046   -0.11180771198560   -1.03370809872243
