    26
        -50.44190039  Gyration_radius:  2.52121307827 Dipole_moment: 4.409
 S          -2.01291726316601    0.36104764467487   -0.66446348022403
O          -1.72947754152784    0.16986573576141    0.73733712742222
O          -2.94372882988882    1.39855961649129   -0.95450526459726
O          -0.65291326249305    0.68960627378195   -1.38705657896554
O          -2.38602402103833   -0.96801360039666   -1.29618107841139
H          -1.62664262202825   -1.59961775719092   -0.98186338897795
H          -0.47430087075232    1.64912812043443   -1.15707018246439
O           1.45122892412812   -0.64126113884891    0.72127703687529
H           1.90876835977920   -0.38141736628824   -0.11041442428420
H           1.11325908572556    0.18207682362268    1.10304889422105
O           0.11038572284675    1.63095654510604    1.81779378289770
H          -0.62454000194320    1.04611800067743    1.51105730896852
H           0.01560422474158    1.70417926722408    2.76917648114749
O          -0.43035558357632   -2.27527134073835   -0.41901029203720
H          -0.62607270801603   -2.71845933933480    0.42259966576014
H           0.23157556816559   -1.59628240448079   -0.15993768037271
O          -0.61905969759809    3.05250954479394   -0.40363261848458
H          -1.58322801987435    3.05513018242817   -0.37871761728603
H          -0.29775340379609    2.79972001811598    0.48237361627868
O           0.35409453828654   -2.81573067491490    2.17557744058296
H           1.02197895973522   -3.47645924121663    2.36459942010018
H           0.82847913892040   -2.02644517726661    1.87346379706171
N           2.26538879934804    0.10984783873553   -1.75759405084429
H           2.66033524969048   -0.58100257684528   -2.38293659728928
H           2.75270286354397    0.98403443879617   -1.90860551464330
H           1.29321237022881    0.24718057639926   -2.01631579259299
