    26
        -50.45061027  Gyration_radius:  2.56493424322 Dipole_moment: 6.144
 S          -1.20060311818525    0.60060230760759   -1.78179167671208
O          -1.39979712044232   -0.74226107900141   -1.27696506085918
O          -1.89429556768836    0.94546827499551   -2.96511660816393
O          -1.55746012397582    1.57578562059909   -0.60657322091774
O           0.29808414177983    0.86420712320368   -1.96046593267852
H           0.81889983429677    0.60303988972572   -1.10818087235927
H          -2.30940720933998    1.11043593784438   -0.10980660420455
O           0.04433506911932    1.74658275462859    1.69424478309214
H           0.82374334773612    1.34091067804970    1.28261242230957
H          -0.50065137945604    2.05328164129471    0.95672344551567
O          -1.35816507999931   -0.32386514719579    2.54234361225742
H          -1.52045755517860   -0.28085216089291    3.48536296825130
H          -0.82003820819196    0.47982335010538    2.31147612776571
O          -3.18901224563432    0.03632775872634    0.57831751337286
H          -2.67199813399720   -0.16051084323261    1.38770967865042
H          -2.93640744722991   -0.63963399381808   -0.06707304107348
O           1.60400720191126    0.16249078473944    0.08557175252479
H           1.12398939919317   -0.66555818486345    0.37063465060501
H           2.43237860199948   -0.14784786153879   -0.35744572386943
O           0.05829074715836   -1.84978744569697    0.68323400329559
H          -0.50713491803904   -1.65704175658653   -0.08844635196578
H          -0.44324065307098   -1.54367715589714    1.45487969955476
N           3.61800050135920   -0.77993997331002   -1.43291034949945
H           4.57204578173784   -0.46725145709420   -1.30564163132202
H           3.30187335314007   -0.46832895596386   -2.34346063713256
H           3.61302077104527   -1.79240010639121   -1.42923292642491
