    26
        -50.45039083  Gyration_radius:  2.4797304563 Dipole_moment: 3.740
 S           0.65649590980273    1.80789628314630    0.95477459483003
O          -0.35145090399996    1.69414705171052   -0.08207137097058
O           0.21670641124915    2.39631185172132    2.16826755238879
O           1.21443129162631    0.38375491004943    1.22007049410352
O           1.87768812421348    2.53079772474270    0.38521673581079
H           2.17724777696439    2.01807600889941   -0.43598007981942
H           0.48886202775450   -0.09278809125579    1.75307497071983
O           2.45069463738344    1.19747004349051   -1.73155686534422
H           1.72700351713771    0.52128027000893   -1.79942469999543
H           2.35852862826562    1.77190536146811   -2.49501162280248
O          -0.76970685363597   -0.56969712899241    2.47353923643573
H          -0.88264825102806    0.07496371259691    3.17694859206873
H          -1.51064435271283   -0.38519899106691    1.82040163212213
O          -2.29597973568361   -1.21554454321061   -1.70690723686205
H          -2.80023658665747   -0.82038088743642   -2.41943678449075
H          -1.35824764625499   -0.98965270431529   -1.86623673030012
O           0.30088907902968   -0.34346945870203   -1.64668619951077
H          -0.02901432333416    0.39503740904578   -1.09480057663124
H           0.50573778311739   -1.08180743032996   -1.01210996287917
O          -2.46573259957979    0.14821968874121    0.65257410457525
H          -2.53356497564773   -0.45159241983197   -0.11804837955374
H          -1.91178239513275    0.88891355357182    0.35592537298095
N           0.69069772782919   -2.30496516140931    0.15285516120966
H          -0.07009051914723   -2.26038954204773    0.82007116350518
H           1.54023387004385   -2.05195855614950    0.64175304391403
H           0.77388235837434   -3.26132896444590   -0.16720213551643
