    26
        -50.46796295  Gyration_radius:  2.51094067563 Dipole_moment: 3.900
 S           0.38132182140688   -0.82874814787966   -0.62506677054728
O           0.30010213782803   -1.28027209924004   -2.09536954834179
O          -0.78031076637886   -1.35007034909996    0.09206677572233
O           1.62205479065909   -1.32554585401838   -0.06973330309960
O           0.35604779169280    0.64794263293567   -0.61219679887413
O          -3.05215778544568   -0.16055849751830   -0.65197352226790
H          -2.34588650019188   -0.70582619737362   -0.25335875572350
H          -2.84605738655323    0.75188765233937   -0.37596593015349
O           3.59836158471747    0.11388448218418    0.89884673939054
H           2.95271057350510   -0.44239596069589    0.40222768863187
H           4.29848681311935   -0.47744949403879    1.17843852047440
O           0.27214072652327   -1.25094339180228    2.47431205871944
H           0.98411285510105   -1.88577605167925    2.35795967735243
H          -0.26887520141373   -1.34880467893492    1.65364808852404
O          -1.76967203129374    2.22910985016797   -0.32084026666295
H          -0.97478836184625    1.67438883710400   -0.46098251799693
H          -1.89232835958718    2.71582672225099   -1.13786599467224
O          -1.90542261050171   -0.28735877355809   -2.98005819471461
H          -2.34107591978557   -0.95793754005930   -3.50976693261297
H          -2.44343388690829   -0.20711182280882   -2.13652081561294
H          -0.52764298375366   -0.85972889887366   -2.47909443864456
N           1.27962384021482    1.08117353840272    1.76177429864737
H           2.30458751931928    0.92815118560200    1.65501244529622
H           0.86078682157881    0.22536514558199    2.23152834983113
H           1.05026429603751    1.94735951055183    2.23693407086763
H           0.88705024196559    1.05343819045160    0.76604505646823
