    26
        -50.44288221  Gyration_radius:  2.49873338052 Dipole_moment: 5.622
 S           0.36950180183328   -0.82954846564198   -2.32325206691809
O           1.36344023681689   -0.73897070838624   -1.27231118201340
O           0.80583136295914   -1.39696419898307   -3.54483875380978
O          -0.82005009202693   -1.64469193411417   -1.71657617177936
O          -0.24481740750161    0.54943847292854   -2.57180094428683
H          -0.77566947087497    0.82945493055430   -1.74185820379681
H          -0.48385343895213   -2.02057046013627   -0.85359250191687
O           0.11546302410500   -2.53608422851851    0.53345080143850
H           0.96615454324388   -2.88204681741990    0.25588294372868
H           0.32578837391765   -1.74639163758563    1.10119287517498
O           0.52868775156081   -0.36299468956512    1.96964171817848
H          -0.27366842245483    0.16438249233721    1.94588890614820
H           1.21479496065377    0.15450112271059    1.50216604422377
O           2.30981855671233    1.00031525950053    0.42359296675181
H           3.25263753978729    0.83372415993671    0.47051345616157
H           1.97417435273319    0.42693525599134   -0.30461714241514
O          -1.53010794324792    1.15644100453564   -0.48788370577194
H          -1.00150503503667    1.70780862565542    0.13878859685959
H          -1.85621758202053    0.37287734956754   -0.00593939629583
O          -2.42190078151460   -1.14906794587155    0.69203334082418
H          -2.85114538950267   -1.49230902681654   -0.09566166672446
H          -1.76398587466187   -1.80655205693591    0.94380095876631
N           0.00531497445344    2.67986382636361    1.14243460299586
H           0.93703309671288    2.35931448538542    0.89152893632644
H          -0.03555858214863    2.76250253583694    2.15109334339273
H          -0.11016056569623    3.60863262851386    0.75632225486267
