    26
        -50.44576729  Gyration_radius:  2.5830236717 Dipole_moment: 6.289
 S           1.88662150093982   -0.97461251088871   -1.99371095674181
O           1.62626872143131   -1.40571760413022   -0.64005075136323
O           2.89271793070824   -1.65144034442849   -2.71781927396425
O           0.55950016714993   -1.02986507420183   -2.79452138947597
O           2.22053956483511    0.54630377234614   -1.94406556389180
H           1.79106962475504    0.96742550632774   -1.15446125139861
H          -0.22923404204661   -0.77342878311795   -2.24213577425175
O          -1.51262535873422    1.77423619737034   -0.09624124627206
H          -1.72942986278963    1.41110901197590    0.79846439747510
H          -0.56349887274794    1.96819556256998   -0.06697576514386
O          -1.59670708604080   -0.37862157780079   -1.49437811182327
H          -2.29488024219591   -0.31366246394294   -2.14764596155866
H          -1.58122582115989    0.50559420501207   -1.00113091603130
O          -0.71103958605709   -1.82257702746698    0.70024641185988
H           0.11574494823950   -2.02988143818311    0.23582358788442
H          -1.26250838473654   -1.42499851021225    0.01080801616761
O           1.23051178779493    1.69031404601680    0.18896727333778
H           1.87814905614525    2.33277025375055    0.48401589127763
H           1.21593150174843    0.95624770345492    0.87601023792434
O           1.23650411065936   -0.29619338382467    1.86053206386609
H           0.40719855495513   -0.77043130398071    1.64623782513562
H           1.90762742761813   -0.81694849269433    1.40371232965405
N          -1.86626082174712    0.54409064306837    2.29917858880431
H          -2.72647761234555    0.67990042896878    2.81466561847338
H          -1.09361767538517    0.75075935000227    2.92089138175545
H          -1.80087954108565   -0.43856815605883    2.05358331838243
