    26
        -50.44644996  Gyration_radius:  2.53396083924 Dipole_moment: 4.584
 S          -0.03770107012620    1.37290387445316   -2.10286666906441
O          -0.83563999736309    1.14777588035806   -0.91351194994291
O          -0.54827115759977    2.30271565598390   -3.03512298933326
O           1.38114175450447    1.76372989400111   -1.63541411450180
O           0.16506511212953   -0.00058021287946   -2.79895664281303
H           0.93575886208529   -0.49474740900914   -2.38636171553415
H           1.48945659477405    1.40462572298672   -0.69372943083067
O           0.62016064105052   -1.71237262836220    0.59761472866059
H          -0.22708139219801   -1.71988113467604    0.09749917657647
H           0.35734599755116   -1.66725778484788    1.54104903383983
O          -1.57914693170781   -1.40964938836069   -0.89725445849694
H          -1.45734670180612   -0.44007525945892   -0.89926860749996
H          -1.47480200786296   -1.68548033186447   -1.81053312662106
O          -0.34632027184652   -0.98759399428564    2.97939746817203
H          -1.01184908755137   -1.50585721022781    3.43279927838708
H          -0.80419379138374   -0.18322003921083    2.62730520968640
O           1.57288175662178    0.75500523970995    0.69311714721926
H           1.01611845625226    1.21837436961712    1.32289757876191
H           1.22702597533630   -0.17735251830503    0.67587640478975
O           2.11896000690824   -1.19603128093660   -1.60623416006512
H           1.73077880924875   -1.60866085498686   -0.81331758397235
H           2.75792017678338   -0.54811545761600   -1.29671941113541
N          -1.60527732750988    1.15244950587011    1.87470811411819
H          -1.35091106760616    1.20044878383049    0.88879778525976
H          -1.49917371837733    2.08409017248725    2.25928950629164
H          -2.59489960981464    0.93475640601923    1.89893941837382
