    26
        -50.46103929  Gyration_radius:  2.54411074259 Dipole_moment: 4.790
 S          -1.49504398501328    0.18758017737686    0.41544839029977
O          -0.93413585319908   -0.92150526210538   -0.35281065493356
O          -1.36308803751521    0.00085162787870    1.83859171062445
O          -0.68017038203878    1.46781485784925   -0.00381946648156
O          -2.85267248285442    0.51436327977490   -0.02604811043207
H          -2.62217182310030    1.17789389506854   -1.24228309820404
H           0.28314936353766    1.36811890208488    0.31183461882908
O           1.71806931576189   -1.16414494847064   -0.68805158979005
H           0.74952943866985   -1.22851720184321   -0.58082367355022
H           2.07548396092078   -1.78442215485492   -0.02667558467562
O           2.46412877818115   -2.40074475229397    1.63680983277572
H           1.86482809335003   -1.81784076107352    2.13802380528687
H           3.34771740788733   -2.23083910451489    1.96698711123147
O          -0.58735410871049   -0.22844168141819   -2.82749948744365
H           0.37047818328441   -0.15571621684444   -2.85956464989408
H          -0.77528051428290   -0.64367569747001   -1.94721360401399
O           1.71798705313616    1.05316169066008    0.72960151923899
H           1.88812355767794    0.28395914653155    0.12517814518365
H           1.62464411445576    0.66229918401173    1.61373628732678
O           0.95165704075741   -0.47308584032860    2.89594307999720
H           0.82092220691149   -0.40195960176873    3.84274704770467
H           0.04875698175993   -0.36614702080468    2.49648275036336
N          -2.26089365725587    1.68457903128194   -2.17487502870946
H          -3.01885088514324    1.89470479453763   -2.81615663025533
H          -1.56247102331433    0.99700684127463   -2.59076318111069
H          -1.77334274387688    2.52470681548831   -1.87479953938195
