    26
        -50.44674339  Gyration_radius:  2.51010402424 Dipole_moment: 6.851
 S           1.42061030430208   -1.30628865951913   -1.43068222021535
O           0.20180214447071   -1.70713824161756   -0.76962276030158
O           1.98635557435092   -2.22003547963177   -2.34980691099361
O           1.13014022094873    0.07690983071430   -2.10859668694338
O           2.47616379761280   -0.91851550322676   -0.37674221533828
H           2.08652011927175   -0.30053845437394    0.31219114675609
H           0.18261064088453   -0.02725350740849   -2.46215000232244
O           0.38667346393382    2.23276869453848   -0.48007456053473
H           0.78096203314577    1.83928478753019    0.31633543582380
H           0.80240393338823    1.76728083743064   -1.21868295040083
O          -1.30892511608289   -0.38250502215596   -2.61771098973479
H          -1.74581467720509    0.24990592830297   -2.00560461655321
H          -1.25163347430759   -1.21640634761327   -2.13321893884094
O           1.61143569410478    0.70141329754579    1.43734074859500
H           2.37984172540759    0.92944503090351    1.96348474941927
H           0.95282308940122    0.21016016337653    2.06480930224440
O          -1.84476344684771   -0.95150256881870    0.88354560019289
H          -1.15973408315251   -1.36172426371230    0.33177293091748
H          -2.09066819905530   -0.13545615101822    0.42591197784614
O          -2.09408926407480    1.36351121782149   -0.71552590248375
H          -2.69421475070316    2.09505139375275   -0.86485330714635
H          -1.19304524494508    1.75818787581777   -0.58226202170100
N          -0.05040403634317   -0.53035477057514    2.98065690573351
H          -0.81985712517836   -0.70880530492059    2.32081252358900
H          -0.42858159034451   -0.02841157415104    3.77378818075811
H           0.28338826701696   -1.42898318899033    3.30488457163505
