    26
        -50.44185401  Gyration_radius:  2.78465953351 Dipole_moment: 8.532
 S          -0.51991955822822   -0.10375844216610    3.32800315361931
O          -1.40551914246873   -0.26284799104677    2.20134001629305
O          -0.93944389259243   -0.60739044595837    4.57830003807317
O           0.84029226462998   -0.78414969088461    2.93497643969462
O          -0.14758535954684    1.39101408964540    3.46121503751971
H           0.14908457033466    1.69778104254388    2.56064218024123
H           0.98046955165188   -0.73868957544605    1.96063351213118
O           1.23734699192329    0.54477158994526   -2.30367497786277
H           1.67255662271161    0.21253468020878   -1.51038529414443
H           0.77182607686158   -0.23466468716382   -2.69072521290839
O          -0.78787710162866    1.82108323833466   -1.21254203814586
H          -0.01287265576120    1.44533639245684   -1.71198127431406
H          -1.06841194695037    2.60681279575620   -1.68189865855872
O          -1.27502388716616   -0.76077188303007   -0.36674013765529
H          -1.37275766673925    0.14302197757152   -0.71036282833717
H          -1.53813466271617   -0.69376456122230    0.57407463490489
O           1.24085366053287   -0.80405924441676    0.28900563037133
H           1.59197978748716   -1.69036623826377    0.18756499413324
H           0.28190933373458   -0.83754940122406   -0.01985840473194
O           0.69912522463427    1.88794495633401    1.06669804708248
H           1.24653879814035    1.13601102849504    0.81550772167821
H           0.03226839055585    1.97614476901084    0.35693419301628
N          -0.22489375897645   -1.64290180529475   -3.00614839590978
H          -0.82175201715735   -1.48236972959321   -3.80785429979397
H          -0.81760387648859   -1.65782388743927   -2.18077544167330
H           0.18754426326977   -2.56134898720430   -3.11194864467202
