    26
        -50.47002388  Gyration_radius:  2.50288510489 Dipole_moment: 4.951
 S           0.78821211561937   -0.22786168783882    1.44550356110487
O           1.32155151334500   -0.50793001887182    0.08904179935696
O           1.47140146655106    0.89007907479957    2.04010424699798
O          -0.65862639555920   -0.04716791019670    1.35812061348525
O           1.06799139502336   -1.49237625655724    2.30141905664546
H           0.31944807322089   -2.10675018043661    2.09269767235334
H          -1.41967501531741    0.92517984155152    0.18763566209771
O          -2.02204864105300   -0.85464914965446   -2.13390966847121
H          -1.29219973594148   -1.42442645159296   -1.82195668353238
H          -2.83400107124995   -1.32366128183495   -1.93520976632023
O          -0.00208744989613   -2.36947162866175   -1.10299313157096
H           0.62086386920165   -2.89266242862788   -1.60959138023114
H           0.53288106446811   -1.65874224417586   -0.65353701954391
O          -1.09084004766187   -2.65120319358409    1.41328311661873
H          -0.84595097781723   -2.84087433078627    0.49366905253452
H          -1.32978886096130   -1.70664814511732    1.42505025404594
O           1.72232818329187    3.24475922412044    0.92509387006952
H           1.75597581232030    2.39905804717508    1.43390350966130
H           1.11346148936521    3.80841596588748    1.40630528134937
O          -1.63826904554838    1.37812089294917   -0.65584058794276
H          -1.89566410250728    0.65600543166294   -1.26650232733193
H          -0.20069210455492    1.74257437935863   -1.05467492781525
N           0.87735746286378    1.77721351464973   -1.12049342554666
H           1.19373880497738    0.84468969533261   -0.73802272614910
H           1.23644381219454    2.50696754952046   -0.45273758428708
H           1.20818838561397    1.93136127096573   -2.06635844758680
