    26
        -50.47015838  Gyration_radius:  2.4404280083 Dipole_moment: 4.694
 S          -0.52048431827755    0.64633520063888    0.62770243069487
O          -0.95794653354924    1.76630065527093   -0.19003534143833
O          -0.13253502617075    1.17005962772119    2.03006915833187
O          -1.57311418194931   -0.33557945975676    0.84482936595612
O           0.67593312968210    0.01588486928049    0.04918907588622
O          -0.17500896707743   -1.46905352575416   -2.02218078157994
H          -0.98043650993511   -0.95139673614385   -2.23387437940928
H           0.32760453525213   -0.87561980535437   -1.43080660234374
O          -2.29260906826247    0.17465694128014   -1.86825541797180
H          -1.85123109867997    0.89181177495229   -1.37430649945341
H          -2.94922526564322   -0.16696608666478   -1.25708389740581
O           1.57646236249690   -2.13496542010999    1.27300199696908
H           1.32117989380189   -1.25133277075927    0.91941721024658
H           2.48896982008527   -2.27345580688449    1.01455908225053
O           1.44170545533786    2.48674543693334   -1.02251027173413
H           0.47997466495673    2.36298567855985   -0.88460925091027
H           1.78716640987146    1.59130080675049   -1.08882600059179
O           1.63894274332486    3.00154001352525    1.55392215993398
H           1.23756826069612    3.86042559676709    1.70232591386797
H           0.58313113972873    1.85753504897315    1.91522437878094
H           1.71675953289072    2.89952584525162    0.57045051083401
N          -0.78542708794992   -2.70354237459717    0.18005908914359
H          -1.39069256343617   -3.50865319120722    0.28905348353369
H          -1.21360507975814   -1.80414265422710    0.57043461012707
H           0.12758326868451   -2.80983639434498    0.67001177036849
H          -0.58066551616593   -2.44056327000316   -0.83776179417970
