    26
        -50.46708051  Gyration_radius:  2.46947152223 Dipole_moment: 4.691
 S          -0.19763688529763   -1.06430953910794    0.39804129503452
O          -1.17742254824417   -1.76862917567107   -0.39306406369863
O          -0.74915649016122   -0.51815021276786    1.63613614387528
O           1.03123435036064   -1.81046746723969    0.63038834526074
O           0.28805112979917    0.18973286167160   -0.43460757239655
O          -1.85618128438844   -0.88489236196062   -2.79518870286286
H          -2.52830536627662   -1.46791898419453   -3.15087917367174
H          -1.54537500101917   -1.30226247581534   -1.96245017662874
O           2.81855195003940    0.83402427353542   -1.21881259337428
H           3.07544827005347    0.29802354106388   -1.97112545727283
H           1.85564919782818    0.71947388345776   -1.11942879827457
O           0.75227077854760    1.49535397468492    2.28694336163883
H           0.43738939471296    2.19652351688705    1.71211017097558
H           0.11386563428425    0.74666522069798    2.16751599092503
O          -3.16427323304574   -0.09197135916527    0.64664993800470
H          -2.36520117423987   -0.21100534082481    1.19821559063310
H          -3.27211847687165   -0.94246423885834    0.21090458417045
O          -1.84139440109218    1.29133185861438   -1.19602156079191
H          -1.97321784397950    0.73116841727219   -1.98456234243840
H          -2.47306571383079    0.94349062962173   -0.52028408716802
H          -0.55585567733939    0.69474560948365   -0.74777489435674
N           2.70315390802453   -0.01150543263213    1.33830552708361
H           2.06044936893853    0.69461248781687    1.79601555419793
H           3.46747046436115   -0.28003151603851    1.94804779923120
H           2.06190778950667   -0.85214456011878    1.09581211756026
H           3.03376186935089    0.37060638960349    0.42911300433411
