    26
        -50.45280123  Gyration_radius:  2.52496339525 Dipole_moment: 3.204
 S          -1.33971628998943   -1.57341075098632    0.67122499871215
O          -0.28234872698693   -1.34280583096013   -0.29552828539429
O          -2.33378359240626   -2.51102445133961    0.31299658287952
O          -0.67372857719962   -1.97867222917252    2.00747537993550
O          -2.01246504531519   -0.21629682979251    0.97275275262938
H          -1.28992421740594    0.49850523312493    1.16157907537218
H           0.15945217299138   -1.44053714272079    2.12029622942087
O           2.43043652815553   -1.36548571846473   -0.05060700845840
H           2.69412162324574   -0.56711321914751   -0.55506422176962
H           1.53565166505031   -1.58574510712491   -0.35702854003872
O           1.50049582862132   -0.56870764508151    2.19728940336874
H           2.05947445487767   -0.83189339061347    2.93030498288435
H           1.96755272068817   -0.87533874792043    1.34956470687775
O           0.03948880130024    1.08155061319571   -1.35184289265199
H          -0.87317516669727    1.34209987254709   -1.61143524137735
H          -0.04848228933362    0.13705003290612   -1.11385273939214
O          -0.13626428186438    1.43706214239093    1.28121377110587
H           0.07745765942352    1.52278879327339    0.32252461836128
H           0.58096083118318    0.92284564377474    1.68555896963272
O           2.75306541658510    0.91473560440779   -1.48187438922562
H           3.05651822868069    0.86740471367208   -2.38948453478364
H           1.80696316088255    1.14261465883235   -1.51623942519792
N          -2.64982502109169    1.29313394008869   -1.61629051041841
H          -3.05614016616538    0.74639007276444   -2.36552481295185
H          -3.16022037665978    2.16568800048521   -1.55762850303074
H          -2.80556531056857    0.78516173187431   -0.75038037648865
