    26
        -50.44774986  Gyration_radius:  2.57355811313 Dipole_moment: 5.081
 S          -0.53922620360277   -1.73294964500444   -1.56662882077656
O          -0.93386594040518   -0.54871144675914   -0.81698881119167
O          -0.99467422914842   -1.76813196123842   -2.90670455019092
O           0.99362245679736   -1.86231168336359   -1.45625780262559
O          -1.01957057377917   -2.97441706400137   -0.80347379915792
H          -0.60801786558071   -2.96491503441779    0.11455388357930
H           1.43172820942687   -1.00728374698176   -1.78854401175791
O           0.35032943227269   -0.19425492170391    1.45543559928310
H          -0.20071318252658    0.47493029439930    1.92578869034136
H          -0.11107119240529   -0.31439216159058    0.59735202579915
O          -0.97078030951780    2.14168800562348   -0.85535019126009
H          -1.06240512110470    1.16946275027682   -0.89000398214147
H          -1.07795725044558    2.44514558873066   -1.75839987185614
O          -0.06732871764136   -2.81111390814431    1.59126847889889
H          -0.77641922350809   -2.93935427259332    2.22498260011991
H           0.22319504320720   -1.87109382123061    1.67389031515411
O           2.08540128823509    0.31569327807582   -2.15852482232926
H           1.96221652782086    0.90748260888115   -1.35728270196109
H           3.03141711134567    0.19267334590377   -2.25969418984752
O           1.62700787576363    1.73329720354717   -0.02503914877689
H           0.76039803555150    2.10662248924565   -0.26853834965577
H           1.42218311545087    1.04926158899080    0.63955018982311
N          -1.23222412617996    1.88260221788668    2.18940573551643
H          -1.33848285021448    2.18785676834545    1.22603291724784
H          -0.79510942229709    2.63804292427006    2.70263958952637
H          -2.15965286752725    1.74417060286869    2.57053102824903
