    26
        -50.45092887  Gyration_radius:  2.51847618836 Dipole_moment: 2.714
 S           1.30962110790026    0.74863795640805   -0.62822772590904
O           0.66205187932355    0.77101702884501    0.66385901150622
O           2.43381589020829   -0.13012954996301   -0.70095029511201
O           0.25708808450046    0.37010139876691   -1.69992720382181
O           1.70189967604438    2.15517483467509   -1.05011431893522
H           0.83265496948466    2.68442021467677   -1.21074281112671
H          -0.11961416024118   -0.54053937142606   -1.51254737046113
O          -2.83230621107786   -0.58333805599890   -0.22358449308462
H          -2.10198666698968   -1.11808371367438   -0.57017919956251
H          -3.11494761698852   -1.00021769681456    0.59214364258476
O          -0.48029250327479    3.39442661774038   -1.31759051719817
H          -1.09372746557118    2.83878506797535   -0.75176172982248
H          -0.42968783389820    4.25438433955422   -0.89356443751267
O          -1.74782949455983    1.87693511358827    0.35813526810207
H          -2.28316336080500    1.12939316094130    0.03530870934315
H          -0.90773585507111    1.47544765553595    0.64786489802408
O          -0.59758280895368   -1.99471712797960   -1.14862538175244
H           0.20408327532743   -2.30229452352349   -0.59563831642780
H          -0.60242193467171   -2.53852606543253   -1.93916769101297
O           1.52036951146695   -2.54438095552803    0.14892036710918
H           2.06727635540010   -1.81021966947853   -0.18166328928391
H           1.34892389244873   -2.31732290342846    1.09539703141720
N           1.02266963015925   -1.41742988429050    2.54813641734680
H           0.23388275748972   -1.56126095742910    3.16588680185446
H           0.87131303172861   -0.54510900726776    2.04395435862680
H           1.84564586062799   -1.29515388646832    3.12467829510712
