    26
        -50.45092887  Gyration_radius:  2.51847132882 Dipole_moment: 2.714
 S          -1.54527399550452    0.33510355873176   -0.41227585903547
O          -0.53518301608148   -0.55576990136634   -0.93708153765232
O          -2.47434540346492   -0.29442469413851    0.47194891848237
O          -0.83873124569715    1.51683772333822    0.29763540609592
O          -2.27623536065396    1.03577677958920   -1.54583410776311
H          -1.60183413359281    1.66153208337967   -2.00962191236663
H          -0.27790403852331    1.18162008003042    1.05880759237018
O          -0.52556778829270    2.45825680724913   -2.67762323760817
H          -0.57992539924358    2.35856680664511   -3.63103597910270
H           0.31781679141720    1.99548236517110   -2.39522302274747
O           2.67131095925260    1.00354593661721    0.51837771860054
H           3.26176338164941    0.25184189741089    0.59160749143704
H           1.96716156725830    0.86813628540810    1.17052049168576
O          -0.95547285136763   -1.52173933265613    2.36189664522910
H          -0.53320180306788   -2.21110162693959    1.79336208153102
H          -1.69161027884554   -1.18092319933447    1.82399921276327
O           0.52264276905176    0.54591346570795    2.25485030503402
H          -0.00092766934046   -0.32406379046468    2.36472960348554
H           0.36641349505245    1.05541877386005    3.05278714638948
O           1.43802602590275    0.93604975610903   -1.93961740249911
H           1.95883668611681    1.15702923008807   -1.14617114056520
H           0.81070193711206    0.25077435515250   -1.64338422369416
N           0.08337394887534   -3.06203175345543    0.40682484104746
H          -0.07793851119723   -2.27587934888778   -0.22086788306330
H          -0.52328159543985   -3.81602383410957    0.10998916810342
H           1.03938552861536   -3.36992842312631    0.28139967384549
