    26
        -50.44837613  Gyration_radius:  2.46029424634 Dipole_moment: 4.173
 S          -0.16050933630523    0.79511616022040   -1.86356610422605
O          -1.46194452855650    1.01318290858233   -1.27605036299838
O           0.13840076832560    1.50830711509839   -3.04986281125765
O           0.91725762427996    1.08031379609917   -0.77230107681739
O           0.03830738063662   -0.72153285969132   -2.05841073302581
H          -0.53864215831686   -1.13677943921268   -1.33506379521271
H           0.76485725215830    2.01099526148260   -0.37838062715227
O          -1.55178959396694   -1.49164931094703   -0.21910305872202
H          -1.21060358592031   -1.20656907202784    0.66054695951057
H          -2.16666629101319   -0.79675648471494   -0.48512277703466
O          -1.66398085157343    1.94640916257174    1.24660875564162
H          -1.82212403476512    1.64239621632373    0.33526048579037
H          -1.30689312125191    1.17206900189502    1.71156574047513
O          -0.58250858724833   -0.48730577783315    2.06880112568154
H          -0.65569332999208   -0.89265365401965    2.93374532908531
H           0.39089800471042   -0.51391652723673    1.82419848639383
O           0.31428990821321    3.31683162286017    0.24548046742344
H          -0.07696414136141    3.88944969331513   -0.41792822047186
H          -0.43913319683099    2.94808648043659    0.78631292988050
O           1.85564588585702   -0.66824325808751    1.21751385034325
H           1.82028798551809   -1.50880201731889    0.70079743892903
H           1.85124065043246    0.03628877379985    0.55707160375021
N           1.46578793983025   -2.81406947408349   -0.40822091277674
H           2.11069722786842   -3.59013674827887   -0.48798656938677
H           1.42789028880305   -2.34057563705021   -1.30425240509793
H           0.54189182047155   -3.19045593218781   -0.23165371873501
