    26
        -50.44471840  Gyration_radius:  2.49861755145 Dipole_moment: 6.517
 S          -2.10389873973523   -0.05021270238220   -1.12004121742094
O          -2.21968099067392   -0.74775858295310    0.14323684469157
O          -3.27477644443885    0.59011855486796   -1.59411682001787
O          -0.93463586690058    0.98840020394711   -0.95254994080531
O          -1.50838817553118   -0.97928218956098   -2.16885358873721
H          -0.68317888773143   -1.40080713347969   -1.71885367721452
H          -1.08234636054968    1.58861892397428   -0.15360455010250
O           0.84011683870498   -1.04718523558709    1.65248483555946
H           1.16489954448349   -1.74849758250187    2.21899036368554
H           0.01069530231926   -0.71657912559942    2.05046363338468
O          -0.88051181020392    2.32820639441977    1.23448380310900
H           0.09033011538241    2.34261802695803    1.21746312787438
H          -1.13250095601316    1.64102222177266    1.87679358186074
O          -1.52069308000498   -0.01245326555417    2.50048136721260
H          -2.19384516510936   -0.25327512032904    3.13878661888469
H          -1.86647776819779   -0.30433706518810    1.61429190844815
O           1.58630722364184    1.30826241105413    0.34648137479469
H           1.51536584159416    0.49377161321417    0.86599024193649
H           0.93239264071100    1.21961065641641   -0.35866331940435
O           0.55156552916741   -1.84256105199272   -1.00979078526678
H           0.53569736597494   -1.60138097461103   -0.06784437901604
H           1.30373160049407   -1.33067742826333   -1.40956172522346
N           2.53785939984558   -0.29813916525194   -1.99016424193914
H           2.71763058214951    0.40215949441577   -1.27648891749737
H           2.20066030067657    0.17850555314556   -2.81697317575016
H           3.41368194995791   -0.74814743081442   -2.22244136344819
