    26
        -50.44395386  Gyration_radius:  2.51029450525 Dipole_moment: 3.730
 S          -0.38097205408055    0.04602596002456   -2.23006501564341
O          -1.06628509013805    1.11641446924942   -1.53845578482536
O           0.16620278330873    0.36421870154255   -3.49678978179233
O           0.71250465424312   -0.51304029366709   -1.27689954763375
O          -1.31841833942611   -1.16750232847885   -2.33047187289967
H          -1.58619661510731   -1.38473323999386   -1.38811115089575
H           1.33905207538899    0.21443964344568   -0.97980739506511
O           2.42938043787904    1.19566153229429   -0.40565522988914
H           3.15019141177022    1.31071504744541   -1.02753225383734
H           2.73143732756923    0.52098627620821    0.27344743137286
O          -2.08054307783516   -1.60599565195772    0.09823284999934
H          -2.39586690916900   -0.69280281943035    0.35047725856349
H          -2.86295181729269   -2.16063568280085    0.06534881050848
O          -2.80467078143544    0.87567930219312    0.50889381336973
H          -2.26186646608853    1.33896088792192    1.15606953754139
H          -2.42466522622860    1.12902644636381   -0.35146702075573
O          -0.06440608913862    1.88542846798708    0.86402176643803
H           0.86678355377196    2.09489570130793    0.74765695493088
H          -0.39691198428266    1.71834097150812   -0.03563966479793
O           2.91200959033950   -0.80641934711325    1.17334832845881
H           1.97958095205800   -0.84402158511822    1.54515771184696
H           2.98794357503985   -1.57487324544325    0.60464663566325
N           0.36150227342552   -0.81439304302288    1.89156490201546
H           0.12961539073701    0.15916455744805    1.69324278116150
H           0.06062406561000   -1.02174677586390    2.83501270080148
H          -0.18307366093414   -1.38379395205180    1.25377323536361
