    26
        -50.44192919  Gyration_radius:  2.50647115323 Dipole_moment: 4.668
 S          -1.86071633862868    0.33702578214054   -1.48349500343055
O          -1.17238149822166    1.58165767717186   -1.22581220146471
O          -2.18450337906074    0.05885850787344   -2.83284935173738
O          -0.95811635010757   -0.80595308808151   -0.89655625711959
O          -3.08394038838513    0.22858323498419   -0.57191993722975
H          -2.69747219617322    0.27656982772661    0.36293254881591
H          -0.08744108049818   -0.87162858706434   -1.39652873724854
O          -1.69574390641348    0.30012462174838    1.56405639247804
H          -1.01055633532095   -0.23477940405711    1.14724124522581
H          -1.35364814524917    1.22731865326111    1.59693275146209
O           1.36098155556730    1.25778199627050   -0.35405498336752
H           1.80870947022367    0.70265393005555   -0.99928205220294
H           0.48596061119446    1.44253770629098   -0.74160904337419
O           1.35381416248000   -1.13352190439453   -1.97040290132229
H           1.56455621683879   -1.76220443830436   -1.22178436493516
H           1.31876089419547   -1.65351980720836   -2.77556888251291
O          -0.66590357058901    2.72817305724789    1.20218785681012
H          -1.00032820512859    2.68377642740086    0.29255659005076
H           0.29218128588245    2.69133614486724    1.11750494376474
O           1.45808336789747   -2.65223957298973    0.14425288708856
H           1.50422815126114   -1.94797338230859    0.84732129352465
H           0.57895468734423   -3.03062663240147    0.20893483633083
N           1.47320205692731   -0.59898857365120    1.87146088613691
H           2.36304812254943   -0.56117165650114    2.35260023867989
H           0.74967874612697   -0.43536707638203    2.56135242104762
H           1.45859207529482    0.17157655632253    1.20052883453087
