    26
        -50.45210042  Gyration_radius:  2.45808054328 Dipole_moment: 6.103
 S          -0.44759282513580    2.04920433895391   -0.75753315008557
O          -0.56821295285008    1.28597078954822    0.47805702457581
O          -0.00631846649485    3.38742552496180   -0.60150071148519
O           0.52784509095612    1.33599017831574   -1.69681489638825
O          -1.80767590205115    1.98414398969975   -1.48399738542771
H          -2.36147121578951    1.25132776681532   -1.07389453621411
H           0.49500591154585    0.29776534426877   -1.70095002072254
O          -1.48383560119077   -2.20128490815058   -0.19964649274723
H          -0.97510163470048   -1.95051514788595    0.63346945076306
H          -1.68229556787853   -3.13676886352550   -0.14645801898552
O          -2.91967924110501    0.12086472652211   -0.10808536891574
H          -2.58682748692511   -0.77168971018216   -0.31575535491191
H          -2.32583397553689    0.45130482947309    0.58040839138688
O           2.06314025765905    1.75684902580489    0.78510382620139
H           1.10129364083257    1.67529214911231    0.87805156177983
H           2.18781189854656    2.51361932319382    0.20698936534415
O           2.56172105334541   -0.84931356707663    0.24235745482714
H           3.43711065425046   -0.92411635005546   -0.14116837355154
H           2.43990446600292    0.10203677114733    0.45509583275037
O           0.60358122127641   -1.16677028850340   -1.59456962905754
H           1.31701883426321   -1.20828352078541   -0.92160995661072
H          -0.19366031914169   -1.55893654539747   -1.18662278979339
N          -0.01256390586892   -1.28091718761935    1.77347107067426
H          -0.16725808530316   -0.30117613689947    1.54556835370882
H           0.96655219945100   -1.46682567868689    1.58231838041449
H          -0.16265805814653   -1.39519685313212    2.76771594230470
