    26
        -50.44719152  Gyration_radius:  2.61767687716 Dipole_moment: 3.645
 S           0.55163683894077    0.86541906633182    0.91731131872820
O          -0.70779618558031    1.56282085340340    1.02912947477937
O           0.81846667854108   -0.10005586359488    1.92757570677822
O           0.59342433385664    0.21018633851023   -0.48868652235670
O           1.71330800447538    1.86270822697698    0.84714263123449
H           1.60735663180251    2.36716385659477   -0.02611152276510
H          -0.41420119020629   -0.00802024366672   -0.72057801997305
O           0.07981267969694   -2.72487550756970    1.60528907251337
H           0.69833541351416   -2.86894452391542    0.85930288572024
H           0.32654138105152   -1.85617303518174    1.95859715789866
O          -2.24631280641550   -2.39626264851313    0.46184582223122
H          -1.40540583928888   -2.54523661351727    0.97842389867385
H          -2.40896185276537   -3.20825401974866   -0.02034042911999
O          -1.18798210995054    3.64365312454245   -0.52905837224266
H          -1.13326828171887    2.89424885662502    0.10180968458684
H          -1.31460457632832    4.43392042911966   -0.00122117611896
O          -1.82917379519257   -0.18028378315901   -0.81850903560699
H          -2.10486182728880    0.50449074665382   -0.19685787900949
H          -2.04638584094162   -1.05328601390090   -0.37497165121211
O           1.20048687756193    2.94271490564752   -1.40520773923435
H           0.31491788418170    3.34185160745177   -1.22184387162998
H           1.04151354056635    2.17692940743314   -1.96379784070543
N           1.79503669802666   -2.58548530649229   -0.55164821816159
H           1.56311736178214   -1.60485290635059   -0.67469128512236
H           1.73915131330873   -3.03741739800870   -1.45559393883286
H           2.75584867836544   -2.63695957571126   -0.23731016111282
