    26
        -50.46059584  Gyration_radius:  2.48233411611 Dipole_moment: 8.772
 S          -0.57567359524873   -0.68439966008458   -0.31451103655771
O           0.67111804880829   -0.15838072050194    0.24316361984053
O          -1.70026473655386   -0.50158350655430    0.56793169091788
O          -0.80825695731715    0.11701923273572   -1.63797046356645
O          -0.41575829497161   -2.06751320831282   -0.77042000758092
H           0.31778428727395   -1.94926296219380   -1.95835494104183
H          -0.64542494833036    1.08882707911473   -1.37538794843179
O           0.39940077498808    1.09439946084863    2.66783561642438
H          -0.06991808510495    0.40232869180834    3.16294899265948
H           0.66082419494236    0.65369321952053    1.84304985432484
O           2.71047419021615   -0.43178404893280   -1.32105607972538
H           1.97471483594758   -0.25487686732397   -0.67496268511727
H           3.39848625718833   -0.86910779520608   -0.81596680515281
O          -1.71279211727667    2.10404649108287    1.35365086980134
H          -1.98330689493584    1.20609228436288    1.09950208979084
H          -0.98093391005109    1.95858002509125    1.99453683728464
O          -0.25440653452949    2.42687388588170   -0.76631438512128
H          -0.88145551318936    2.47973749970274    0.01541037355905
H           0.61578219647656    2.28789038239356   -0.38134515142172
O          -1.33458270559972   -0.98499796807955    3.21092823779191
H          -1.48415312764206   -0.93651848785807    2.24875109368372
H          -2.18784888047638   -0.82581799222602    3.61887787441303
N           0.93727754574609   -1.63704872894897   -2.84022014268177
H           0.39304730880234   -0.91443937126601   -3.30826137109172
H           1.16156524036778   -2.40552826847758   -3.46380849240833
H           1.79430141073547   -1.19822865656187   -2.39800765059678
