    26
        -50.46368298  Gyration_radius:  2.41741813211 Dipole_moment: 6.682
 S          -0.33860965967136   -1.25685148517054   -0.90586278140912
O           0.86386347745209   -0.44183938470666   -0.72906507262374
O          -0.31992979956623   -2.45385452419087   -0.10706446055255
O          -1.53288221039601   -0.34418172515310   -0.44665006719480
O          -0.62741898008088   -1.48050313838151   -2.32405676921919
H          -1.05532482336904   -0.22137203162794   -2.75767956202557
H          -1.33803210490114   -0.03725857634838    0.50430843501777
O           0.20090296194575   -2.00095567356867    2.40572997606312
H          -0.09225752496097   -2.74795357412793    2.92931013659139
H           0.03040153028067   -2.24308047140277    1.46137517465624
O          -0.88948658984268    0.43922283903235    1.87912200170064
H          -0.56272687259412   -0.38473098834002    2.28574038411346
H          -0.10237423790920    1.03152737988860    1.84340063740126
O           1.38966063322142    1.82212905149571    1.63762162293699
H           1.92447241957507    0.99241389896453    1.68878534039811
H           1.66136130151627    2.25097322630221    0.82338792165587
O           0.08254055938123    1.98139854509841   -1.10388041447088
H          -0.39261640235621    2.18463224578555   -0.29232035068221
H           0.51430588206130    1.09759006897267   -0.94203679079694
O           2.44939481726764   -0.60541492228249    1.45766095073328
H           1.89949372574250   -1.17043610777479    2.01753019585304
H           2.04380064979604   -0.66270126635837    0.57383619977188
N          -1.38946269549145    0.83296678760740   -2.96065277214657
H          -1.19772072922381    1.10275792005154   -3.92032416930851
H          -0.83905301919676    1.42720887073865   -2.26446118258468
H          -2.38230231872374    0.88831304551193   -2.75375455392362
