    26
        -50.46903298  Gyration_radius:  2.43872276792 Dipole_moment: 5.430
 S           0.34515699870619   -0.98482815887534    0.51756106102729
O           0.22007543611568    0.11791319054003    1.45726319366988
O          -0.89790831867641   -1.72862780264590    0.34776850973179
O           0.81065547260559   -0.50025000587535   -0.79196764292608
O           1.39922522581185   -1.97933884098794    1.05596228902753
H           2.04474096614840   -1.43040316912506    1.59851274933179
H           0.34085442798525    1.16339561256707   -0.78377825263771
O          -2.60270068207747    1.35774316336905   -1.02658594248571
H          -2.74684944406632    1.08577364851185   -0.08868269291928
H          -2.14369387444053    0.11471913570773   -1.65388439900021
O          -2.44537908150437    0.35616245354990    1.43302638418290
H          -1.47662139070451    0.38441190657164    1.56025025826017
H          -2.65241121836381   -0.58202251742698    1.42561868928248
O          -0.06050664252178    2.04633821786262   -0.67933039634104
H           0.07343736956568    2.26548551824530    0.24626247425586
H          -1.75083240704634    1.85123856974752   -0.99681150885907
O           2.79008207229488   -0.19255968389415    2.25151360100818
H           3.19660569798839    0.16559145854071    1.43606426724031
H           1.94524902534466    0.27186558670157    2.34425231071909
O           3.28168406286221    0.39578188199294   -0.32475829988923
H           2.38745815614640    0.09108720018094   -0.58182392015005
H           3.90253026559502   -0.11470386861244   -0.84684353480594
N          -1.63716718235289   -0.82724834943059   -1.95082146402177
H          -2.17375160218153   -1.38369958653179   -2.60756732243708
H          -1.44243824184309   -1.34234239721171   -1.03285358151460
H          -0.70749508138810   -0.60148317347848   -2.30834683973877
