    26
        -50.45173544  Gyration_radius:  2.63363987859 Dipole_moment: 6.745
 S           0.20107936241087    0.13207290913819   -1.36395011055182
O          -1.09438251316868   -0.18262061861251   -0.78556378798762
O           0.52446241188873    1.52040434819040   -1.32903180543434
O           1.25997247799068   -0.70237574868339   -0.61786519798551
O           0.28344450824521   -0.40735570225263   -2.78390327430557
H           0.48929664189087   -1.41550174239329   -2.72781812765429
H           1.36217444467142   -0.31444527582961    0.36145672823435
O           1.34631053016851    0.32792937306251    1.64299765064488
H           1.64974757133626    1.25840994618008    1.40538997134932
H           0.41008773986100    0.41834389790831    1.88042260695133
O          -1.39363150518489    0.80729850058288    1.62304014804630
H          -2.27119507672339    0.56675899113557    1.92604251987589
H          -1.33788538060050    0.51105108444021    0.68427490205457
O           0.81713537761673   -2.83994183436620   -2.38468875178852
H           1.54908611330489   -2.71545436082371   -1.77291894895106
H           0.02015552711124   -3.06825703303716   -1.82186917516487
O          -0.56510989001887    3.42384037684944    2.03898864450186
H          -0.94683423423030    2.55071785061207    1.84322807274874
H          -0.47888830550092    3.48252766892674    2.99203016972705
O           1.76174848898113    2.73217309036041    0.77396140669400
H           1.45887343057548    2.50883071980487   -0.12104937460436
H           1.01389924977103    3.21063481260187    1.17942615998783
N          -1.30110581260513   -3.02384093234470   -0.81134143176484
H          -1.37902735984218   -2.00834410474707   -0.74317725993796
H          -1.21934983699299   -3.39699532238728    0.12571870316250
H          -2.16006397096450   -3.37586091431879   -1.21380043800650
