    26
        -50.46251034  Gyration_radius:  2.38978336408 Dipole_moment: 6.277
 S           0.71727772140843    1.54156902692096   -1.05446935226169
O           0.45832699040910    0.11361406560047   -1.38555232979780
O          -0.14246204641193    2.41491715770711   -1.78701081394567
O           0.38469533103980    1.64899922311917    0.48915599738545
O           2.14721328755857    1.81016608639463   -1.10463552813947
H           2.66927521618628    0.59162824513786   -0.38639102928666
H          -0.60210172437276    1.50104404257139    0.63782743432684
O           1.33490883894611   -0.22704945203602    2.25940283752515
H           1.05728107301852    0.66881619032139    2.01362666477620
H           0.51790332341765   -0.75839120983982    2.20233355071829
O          -1.04805292634023   -1.50515969470054    1.76309008602233
H          -1.42177568682455   -2.22712643144603    2.26962351447445
H          -1.00873439040538   -1.80546418300429    0.81791015671621
O          -2.17779606228493    0.49322291138151   -1.78969086901993
H          -1.20323482797149    0.43692484137372   -1.80783106854276
H          -2.36250544906237    1.35322535777754   -2.17613214580464
O          -2.05317643313621    0.94425581263674    0.86277920805750
H          -1.86861117161280    0.09544951886827    1.29655865605554
H          -2.29869276569268    0.74436985830151   -0.06618102956459
O          -0.98106089344083   -2.05968080486669   -0.80828103453994
H          -1.82137940350305   -1.86275576237698   -1.23263346369479
H          -0.39620575354453   -1.32733578569722   -1.08659254642744
N           2.59877231926984   -0.43628680188786   -0.04476568147242
H           3.44638554081498   -0.97618823744372   -0.17974657095287
H           1.81202637625484   -0.72571143972819   -0.65985049673181
H           2.24172350627861   -0.44705254508245    0.95745584412947
