    26
        -50.45721874  Gyration_radius:  2.42656484352 Dipole_moment: 3.365
 S          -1.11967620234722    0.71376395137732   -0.08733914289947
O          -1.31478428673425   -0.71680450886913   -0.18421753949571
O          -1.31627425446675    1.26327093271318    1.21922997815658
O           0.30865435957708    1.03686174279195   -0.57056719945556
O          -1.99486977736169    1.42137146632000   -1.10540477383808
H          -1.98362436825292    0.80907447207533   -1.94515326486127
H           1.00535684541049    0.63496517652028    0.12007942115563
O           0.82312226928074   -0.17297154367805   -3.09960720203810
H           1.02277409673408   -0.92973546779629   -2.50895827078815
H           0.98686114125577    0.61078190218828   -2.56500198072936
O           0.86193315090713    2.17080641440607    2.53513123625340
H          -0.00010188513192    1.89643411853064    2.16830322714342
H           0.90427683235624    3.12310301084149    2.43685350786507
O          -1.79196077978434   -0.25859263431241   -2.95037686523433
H          -1.91079950727419   -1.05157842964310   -2.41701162940187
H          -0.82073182810313   -0.22796928672489   -3.18154749112100
O           1.81415939228613    0.07919916320311    1.16691730450844
H           1.83657835275997    0.86418966154917    1.74816210809259
H           1.19604445274080   -0.55079745569980    1.65263640904949
O           1.00043385547906   -1.88846816073958   -1.02262906055240
H           1.65575465085615   -1.58588749565103   -0.38792929267058
H           0.13420719025060   -1.60864182647650   -0.67985960453752
N          -0.07767199499262   -1.32776718234658    2.33351250633677
H          -0.43138804259210   -0.74017160076138    3.07817484157760
H          -0.03686068091810   -2.28034287624398    2.67339678251708
H          -0.75141297189701   -1.28409354365531    1.57320599500910
