    26
        -50.44804961  Gyration_radius:  2.61303040729 Dipole_moment: 6.053
 S           0.24457260955275   -1.53359318767630    0.70079955107037
O          -0.50800716493820   -0.73701686069546   -0.24812960405524
O           1.60315360766436   -1.77337508093239    0.34168536978057
O           0.13272868805872   -0.86949200117591    2.08489182894870
O          -0.48589843337763   -2.85827640445955    0.92505194242553
H          -1.45789899218763   -2.56215043506317    1.09119311482629
H           0.51211707195286    0.09130717000292    2.07614350729467
O           0.12980253846228    2.86491584884785   -1.98308806011763
H           0.46257887006427    1.96760002287172   -2.23227805359804
H          -0.39986177592297    3.16394537338139   -2.72315189647374
O           0.77669998255694    0.33286923338461   -2.48346807557521
H           1.71016105565739    0.15883437737288   -2.25854279647389
H           0.26692192451775   -0.11757428937842   -1.79429248848851
O           0.87851270443243    1.52967952047665    1.98474943021242
H           0.68567177911599    2.00519774388885    2.79561102706200
H           0.19239362068187    1.82233768564610    1.30666950586486
O          -0.98540129968731    1.90704256044007    0.24385699800944
H          -0.93866130059260    0.97485460614064   -0.02574623353505
H          -0.61340451784478    2.40456670906577   -0.52122842366611
O           3.17433651445216   -0.50033560978683   -1.47871422870913
H           2.70569413818123   -0.92999901844150   -0.74229024937906
H           3.66717939077330   -1.19379768944354   -1.92084025075550
N          -2.75903841973169   -1.72108308008750    1.22007354490749
H          -2.51830476692393   -1.02088696632251    0.52670212474589
H          -2.82191659975124   -1.27386212846705    2.12496974949337
H          -3.65413121516525   -2.13170807958146    0.98937267618330
