    26
        -50.44790173  Gyration_radius:  2.4519661286 Dipole_moment: 6.444
 S          -0.48451484344729   -0.06259719826386   -2.17794738506527
O          -1.33762167025286    0.73875597669079   -1.31687452407900
O          -0.74428689720187    0.02269656582110   -3.56557613294647
O           0.98619914349123    0.33078193712546   -1.83657421153569
O          -0.55336490602645   -1.52162894225562   -1.71932253588039
H          -0.06505390439154   -1.62765622611077   -0.77520534938057
H           0.93490632008189    1.24800528644925   -1.42264038398694
O           0.44892110452701   -1.68517117154429    0.54493923803989
H           1.30968299095716   -1.17274341625370    0.58726327528657
H          -0.21253737336938   -1.12357667936174    1.00408171457498
O           0.41275024423288    1.73417317906842    1.94510131969553
H          -0.31027864639038    1.09139295919630    1.82994398252623
H           0.11585480498423    2.35893927463526    2.60889062714814
O          -1.55355671463027   -0.01010236600342    1.19603755782164
H          -2.18782157392367   -0.74652464214217    1.16466204817387
H          -1.56866643592575    0.34643353621329    0.27879027073456
O           0.50748494219778    2.54652213890994   -0.65918217694215
H          -0.41769877885809    2.37414299639535   -0.88995058243453
H           0.57742741343834    2.35325172088771    0.29842635513446
O          -2.53732333723242   -2.36613843924330    0.22069242969451
H          -2.19795929855967   -2.17116770706710   -0.66168101358306
H          -2.01503508990232   -3.10336611359279    0.54517664022621
N           2.55378141091687   -0.09213182968230    0.70803632890831
H           2.70686147483467    0.20357220591082   -0.24826244709770
H           3.44150314957206   -0.36253134361545    1.10963210216726
H           2.19034647088090    0.69666828780629    1.23154286277259
