    26
        -50.45002639  Gyration_radius:  2.51324020064 Dipole_moment: 6.053
 S          -1.79957780066741   -0.02580104302559   -1.83456189890366
O          -2.31766055329425    0.06562580210875   -0.48958487739546
O          -2.60748625359616    0.49806853584250   -2.87223935686022
O          -0.38162429429269    0.61280104251581   -1.84918660222017
O          -1.46695260522510   -1.50829891375436   -2.13259228050329
H          -0.93892922736929   -1.80933673505331   -1.34533078240707
H          -0.23571457275561    1.30076608111463   -1.09889049785799
O           0.10048755991555    2.20148338342119    0.06110458873028
H           0.91698518934993    1.82134051857747    0.45053805551738
H          -0.59613474482842    2.04707442172672    0.72517669355617
O          -1.81341694840681    1.24332184894529    1.76386475564589
H          -2.61450630621993    1.60021073394057    2.14943195456082
H          -2.08946729377926    0.76551718872605    0.94578347092500
O           0.08258655306895   -2.16927101437264   -0.15415143407131
H           0.91057150013908   -1.68073687270873   -0.49863612650641
H           0.28993849275265   -3.10553311292591   -0.15281461981159
O           2.09637280079362    0.89027796377537    1.34250176334456
H           1.42958455728142    0.25843610787525    1.72660007506806
H           2.51999531501116    1.31920430687568    2.08690277003220
O           0.15173912427753   -0.66129637306071    2.19715811848534
H          -0.59473949374176   -0.04104988001045    2.21707458027567
H          -0.01902418213585   -1.25639921392097    1.44930687825314
N           2.09097514750079   -0.79285045179582   -1.07953624435007
H           2.90509000826435   -1.17051878342924   -1.54586367119449
H           2.40274148446650   -0.18851328410489   -0.32461318692206
H           1.57816653349349   -0.21452223728141   -1.73744211538849
