    26
        -50.45131467  Gyration_radius:  2.45141941979 Dipole_moment: 5.737
 S          -0.70044293052189   -0.38459857377747   -2.06012174001062
O          -1.61093199564709    0.12180176685744   -1.04757592680606
O          -1.23186584706316   -0.54030398622605   -3.36134055063806
O           0.53404778602404    0.56066524115951   -2.08439587442309
O          -0.13198290622607   -1.72254035084069   -1.57251706731278
H           0.44315408387627   -1.59703909255279   -0.70698238228857
H           0.48136484165856    1.25754764180352   -1.36725534931223
O           0.46523608311972    2.43580913080110   -0.28769915208791
H           0.11396519977203    3.22189663739564   -0.71021144628211
H          -0.22498914517542    2.15546905165496    0.38334598558580
O          -1.45032996196357    1.56478982631376    1.22840351884832
H          -1.17361359630033    0.84330452069310    1.81674421398536
H          -1.81717944793052    1.11791023464221    0.44746518761829
O          -2.21937402316491   -1.99838101810472    0.44401020351761
H          -1.75736899147514   -2.69874132697158   -0.02412095486776
H          -2.17763189963137   -1.22114299242553   -0.14815680998906
O           1.20666239528337   -1.39370898523291    0.51014457023329
H           0.60832599924111   -1.13677345368175    1.23656232229611
H           1.84284475553064   -0.63897084680750    0.36720356994314
O          -0.75789824374490   -0.87188381033786    2.33669475032906
H          -0.85972406025356   -1.28372459141254    3.19552261787231
H          -1.38227570887147   -1.33722832662558    1.72242096983176
N           2.82345098550893    0.66737839577987    0.01591480038695
H           3.02741995250970    0.57355272520673   -0.97139480335805
H           3.69542275298810    0.80564023381059    0.51001426864365
H           2.25371391245739    1.49927192888785    0.12732505828326
