    26
        -50.44344342  Gyration_radius:  2.49210137725 Dipole_moment: 7.868
 S          -2.11565559840929    0.72802369671959   -0.68338429436898
O          -2.32990823935846   -0.47033764449199    0.09417385047496
O          -3.22859294772448    1.58028097530810   -0.88158802113796
O          -0.95128186753729    1.52328913244437    0.01629873071794
O          -1.46785584980060    0.38235706288192   -2.02091694754560
H          -0.78211463042861   -0.41479844608784   -1.91223553341573
H          -0.93218182334636    1.35551277184164    1.00225592246385
O          -0.56574480372030    1.13025787271298    2.52970092956188
H           0.11347024371399    0.42261821450471    2.44810183552874
H          -0.11429359735299    1.91822003340418    2.83950965161814
O           0.90443698274326    2.22957129453340   -1.93453783609300
H           0.48182554993426    1.89772568307218   -2.73034394375219
H           0.22526429088785    2.18088848868142   -1.24801660289334
O          -0.65436855443181   -2.28528505570683    0.79900451173036
H          -1.32618506924215   -1.58239528622834    0.58707195520959
H          -1.15614539207667   -3.03118262738707    1.13139469361758
O           0.19156047175067   -1.45013351193432   -1.70145830691481
H          -0.08934197797492   -1.96119615964296   -0.92642078068155
H           1.02403325996342   -0.95820064020873   -1.40458202700338
O           1.19661474963111   -0.85071922192656    2.12097558448454
H           0.58128423571045   -1.41872644809861    1.60695066751203
H           1.49152889062088   -1.37724803756598    2.86598192214919
N           2.21220712084770   -0.07076320975258   -0.75246766360040
H           1.98854712188929    0.85804996753591   -1.10942180814352
H           3.17144795431572   -0.28016887168045   -0.99347243570742
H           2.13144947938918   -0.05564002292249    0.25742595615896
