    26
        -50.45577741  Gyration_radius:  2.44045341903 Dipole_moment: 4.626
 S          -1.65071361644851    1.18664170220266   -0.18769828912665
O          -1.13321592581167    2.50506945854417   -0.42445722275512
O          -3.05791550173951    0.97985257769603   -0.22838568942877
O          -0.95626264201341    0.24904013589614   -1.21290316437370
O          -1.15237548054636    0.67232096480683    1.17989873776001
H          -0.14240604538028    0.82981864913300    1.33026887204993
H          -1.50482711854457   -0.63448158283009   -1.12208537162495
O           1.97625897395788   -1.39650915186935    0.25803792239500
H           2.84595739747434   -1.79852867345718    0.27738441610658
H           1.89384245741150   -0.95720812634714   -0.62773222567270
O           1.46217393599151    2.54502766221431   -0.73358101543763
H           0.47447413164017    2.57557797710104   -0.69544357778723
H           1.75213184005817    3.45653775244307   -0.79891760434442
O          -2.39543619616573   -1.69224229975062   -0.66368431408221
H          -1.86401748319171   -2.02956125090663    0.12032344104012
H          -3.07560084891727   -1.09405475964737   -0.32639967601416
O           1.34095986544751    0.93695546391376    1.44591162024347
H           1.64214276858333    0.05677325404975    1.13271489381357
H           1.56705932992224    1.57149600575900    0.73852501005334
O           1.70029927750645    0.05015621257067   -1.93782864272748
H           0.73852153737487   -0.00323520893618   -2.02415709641496
H           1.86433179366791    0.96539994057198   -1.66211029116420
N          -0.77002422096627   -2.26172074687449    1.34562524241857
H           0.16201977511999   -2.14792014217844    0.95731215990685
H          -0.77513560323607   -3.10047691081825    1.91148778513308
H          -0.94224242122032   -1.46472893332845    1.94789408000377
