    26
        -50.45894441  Gyration_radius:  2.43158271683 Dipole_moment: 4.930
 S          -0.16966710509106    0.57886947384698   -1.75007895329926
O          -0.57683586077408   -0.41209647048200   -0.76460055411004
O          -1.14972638531636    1.60965541791465   -1.96538373955440
O           1.14829860745517    1.24156449341365   -1.16455225192746
O           0.31622458583214   -0.08289634103376   -2.96448129891115
H           1.20637137268714   -0.93644924411627   -2.27311378864278
H           1.07418094783026    1.29780622277128   -0.18415798325998
O          -1.30958650301637    0.89513930803017    2.26211752972893
H          -1.87692424817110    1.23660083476626    1.53664486036653
H          -1.37420841344136   -0.07170544881098    2.19371975611049
O          -2.73059414126712    1.73396052687642    0.14438105587250
H          -3.09718445464929    2.61635513109355    0.06651236942041
H          -2.17084710089008    1.60881782715630   -0.65443688782106
O          -1.19203797154746   -1.73130359416843    1.37784712809862
H          -1.06788602831289   -1.22249195810426    0.54349137487319
H          -1.96377790592793   -2.28113960926369    1.23835072816308
O           1.11052679741995    1.21861985484727    1.46764359276691
H           1.47202536115258    1.98867526894954    1.90818515550262
H           0.15772982030742    1.12029901408586    1.79981745356511
O           1.56619452740568   -1.44653339505573    0.93756919991973
H           1.56234986111554   -0.50512527800815    1.18350742136119
H           0.68114096327345   -1.75929220710868    1.18479151005970
N           1.93243167816198   -1.54542195797036   -1.67944045689881
H           1.90174921040559   -2.51415466407296   -1.98308325304582
H           1.68998654033278   -1.47991841379440   -0.63395971953412
H           2.86006584499936   -1.15783480172009   -1.82729025879276
