    26
        -50.46564189  Gyration_radius:  2.42007059405 Dipole_moment: 2.433
 S           0.61713429380280    1.12164748120114    0.20806694614286
O           1.47371292782828    2.38848048840059   -0.01585790961024
O           1.06125861999685    0.11966260738415   -0.77555547693349
O           0.82082707497019    0.63198022980837    1.56082051444979
O          -0.77081145540482    1.49369242514199   -0.03978165440466
O          -1.06991865106778    0.65192017578157   -2.55613222611771
H          -1.04484650619387    1.13575453952545   -1.70740680170285
H          -0.15161240369135    0.42072047065369   -2.72391560371508
O          -0.64588100301016   -1.51011990459281    1.92738895347751
H          -0.05309383025710   -0.72280471061094    1.97565873188759
H          -1.53563330172008   -1.14499304676358    1.78493399535266
O          -0.01677846289407   -2.11535343301521   -0.42981615868465
H           0.51539079166127   -1.24575544758521   -0.62239962875224
H          -0.25341036349418   -2.03080280716686    0.58718603497165
O          -2.69199150179684   -0.06893272731681    0.79617955781475
H          -1.99784097953679    0.58028028355465    0.52206929257243
H          -3.44493718849417    0.45088407953219    1.08083519137675
O          -2.19056007449083   -1.48991496739362   -1.48834467149541
H          -1.89413143949375   -0.73156965277242   -2.05365343366133
H          -0.94683307823419   -1.97094716564527   -0.93820303480595
H          -2.62178737809951   -1.07979429772445   -0.71600699206720
N           3.51977596404694    0.98859314288164    0.75108402029284
H           2.39015032974702    2.05967595173936    0.21465108691831
H           2.86219200219601    0.59626214674964    1.41877772114110
H           3.66951437470371    0.30158905443574    0.02355050326485
H           4.40011124894816    1.16984507382526    1.21587103225023
