    26
        -50.45324945  Gyration_radius:  2.5805676087 Dipole_moment: 3.558
 S          -0.69076522392771    1.23853136811201   -0.24168877505071
O           0.45800217216036    1.29141739805652    0.67390781896856
O          -1.04810971484090    2.51897338390339   -0.77419943528930
O          -0.24286465475069    0.30672801588308   -1.42693183598602
O          -1.79553812508366    0.51161524565134    0.39154329884630
H          -1.59790451928879   -0.34829541231525    1.44777788215803
H           0.11943775075309    0.95343206753467   -2.10772242681856
O           1.96843169682012    2.97824676553390   -0.71071228354428
H           1.48128001707870    2.35351817975183   -0.13585216783770
H           1.63372435217554    3.84783535688204   -0.48132836119307
O          -1.37137965993830   -1.11543356475445    2.17886897823956
H          -1.60057138151363   -1.99654830522155    1.66595088486318
H          -0.35875005742726   -1.07973272552391    2.24595184999908
O          -1.77706570148414   -3.09103712764869    0.67264272307066
H          -0.90718490132635   -2.94318003280330    0.17403015715115
H          -2.48197514840681   -2.84121303496597    0.07130417175231
O           0.56964180848593    2.24261924997630   -2.87104858761719
H           1.30944607903021    2.53146660539329   -2.29321874613932
H          -0.19917705401817    2.71742849673996   -2.51913875086354
O           1.16672314942213   -0.76352372017966    2.02625770600406
H           1.64892667541749   -0.44040356313400    2.78964612588333
H           0.97760252172424    0.04107019985273    1.46248682920416
N           0.46123769175805   -2.36171402596753   -0.46527818790583
H           0.95604603436075   -2.93154490120374   -1.13931623502364
H           1.10533864086981   -2.13614245825158    0.28528371320252
H           0.21544757194402   -1.48411343130192   -0.91921634606419
