    26
        -50.46564193  Gyration_radius:  2.42015084693 Dipole_moment: 2.438
 S           1.27834513775833   -0.21601383133713   -0.02013029371971
O           1.05951815591669   -0.96520058333825    1.20544329604930
O           2.79567469204478   -0.02398912512363   -0.24272667199562
O           0.75849002011016   -0.91196843145337   -1.19126227186466
O           0.68268427919297    1.12683515598480    0.08289600376058
O          -1.51740598032198   -1.29088163382886    1.56340369890186
H          -1.74741280051510   -1.79423986984180    0.76404940263356
H          -0.53097431870497   -1.28155182794197    1.58248072360579
O          -1.59323333862636   -2.04638690345791   -1.07611474617601
H          -1.59893495784618   -2.85493134746383   -1.59028390574489
H          -0.67365938700245   -1.68735265440588   -1.13926085343029
O          -1.74339738940953    1.06071109912211    0.70460255681774
H          -1.76867613493623    0.12697316026965    1.17886337225704
H          -0.73610685461533    1.19197678429055    0.49318066049937
O          -0.20854102282385    1.13928326777083   -2.60091795583863
H           0.13278126082295    1.84797210866387   -2.04764073938642
H           0.23540881500749    0.33627371851109   -2.26454532919906
O          -2.55230314150658    0.46642804516624   -1.58220512604025
H          -1.78927085165332    0.79276910548483   -2.12425960154409
H          -2.43760904140835   -0.50072848790896   -1.53598596485101
H          -2.19175904094883    0.89201849121806   -0.25178130353517
N           2.89082305016251    0.99272604978904    2.14285602298751
H           3.57281303509795    1.05071613928137    2.88814100543086
H           2.21675458914886    0.26448979060479    2.36058022460294
H           2.39116450973708    1.87084099376090    2.08768456889585
H           3.07482670531202    0.41323076612969    0.61293320685517
