    26
        -50.45639460  Gyration_radius:  2.49540266799 Dipole_moment: 5.156
 S           0.08601872184961    1.32218344863866    1.21302857893709
O          -1.10558194846997    0.48849368669546    1.47008642325875
O           1.18242210891002    1.02087655842449    2.08857381523204
O           0.51859078329468    0.95510436020174   -0.26548796423554
O          -0.27551610428763    2.72783122986908    1.10721161155403
H          -1.43930391102200    2.55116559232503    0.09317912505188
H           0.28822846928452    0.01189849247524   -0.50243444713052
O          -1.26617282373381    0.70279698228876   -2.51943859456750
H          -0.41819079176323    1.12084827058385   -2.69157075143666
H          -1.04194586937433   -0.17580111089489   -2.16099011447109
O          -0.87069643852262   -2.13031068848149    1.40036215056971
H          -0.90306894549453   -1.16449621970700    1.58102279364147
H          -1.58335584938322   -2.52183562446756    1.90667028659026
O           3.07688028754948   -0.39600039789783    0.89172564993165
H           3.64147289299235    0.30305072887323    0.55812560866646
H           2.37468303428020    0.05950399530860    1.40472707388155
O           2.27143022864556   -2.24808409241990   -0.86637135301423
H           2.60261134601371   -1.54755715796442   -0.25870552247671
H           2.30554700317368   -3.06052548039345   -0.35806377193682
O          -0.21109566802839   -1.40111118486955   -1.08909919137684
H          -0.56724317347950   -1.81265414814598   -0.27695742635591
H           0.69915160325350   -1.77876315448796   -1.17752794622796
N          -2.20658624601931    1.92462616216743   -0.32556220286437
H          -1.91301362177117    1.53248336323808   -1.26068788439934
H          -3.12103896104295    2.36274140470334   -0.35401446429770
H          -2.12422613685553    1.15353499394793    0.39219852746223
