    26
        -50.44830216  Gyration_radius:  2.48232258319 Dipole_moment: 4.530
 S          -1.33595071772035    0.41035518389383   -1.37852109477261
O          -1.27256041222751   -0.74384306066976   -0.50923438760454
O          -2.39192420525110    0.41271590613626   -2.32238799582655
O          -1.35611551217036    1.68640338732388   -0.48993749195250
O           0.02769290230016    0.57660626605141   -2.07745706940468
H           0.64296098654047    0.89998489332337   -1.34424853141998
H          -2.10414470471133    1.61878554208717    0.19792083788066
O           1.15880075569889   -0.18459623923671    1.93314052767969
H           1.12057741686098   -0.99253566970767    1.33143875796234
H           1.88937975750967   -0.33274831486199    2.53501310062536
O           1.01293757293888   -2.07284728218265    0.17877098888461
H           0.13658939373707   -1.82385325150042   -0.15695188834223
H           1.65017562054620   -1.79797200903326   -0.51982640474030
O          -3.13458207481543    1.32056231878430    1.27812425213131
H          -3.89735827207653    0.87561307584428    0.90225620083192
H          -2.63077497517453    0.63209087789604    1.79474745018321
O           1.39994247771714    1.50135656088138   -0.11651699184584
H           0.80617525241323    2.23415756810742    0.07215901716635
H           1.33872077687138    0.89939588655397    0.66629920434920
O          -1.61608319939904   -0.60439358853990    2.17154556434624
H          -1.56153443638170   -0.91940106987610    1.25297363351186
H          -0.70700347014707   -0.35102135036638    2.38918898780387
N           2.60247037438681   -0.97255533909087   -1.75286718789560
H           2.92662026876383   -0.09236837446252   -1.36977269250788
H           1.91006212082027   -0.75266699588754   -2.45974846777209
H           3.38492629297120   -1.42722491146453   -2.20610831927333
