    26
        -50.47015840  Gyration_radius:  2.44035833964 Dipole_moment: 4.694
 S           0.62980469377612    0.47632697213445    0.67777999950551
O          -0.08916560277479    0.31350288013245   -0.59506469015164
O          -0.20830140015579    0.08685580491283    1.80263791320010
O           1.89618628872018   -0.23763958345294    0.64796911214475
O           0.90906045502782    1.98650485360166    0.85903989140990
O           0.74212253585648   -2.55525254764727    1.30248594022025
H           0.42332434878702   -2.31903080140935    2.17655316877331
H           1.31923519051469   -1.81096508256523    1.04553895166030
O           2.35922185106571    0.07865972296441   -1.93208337437197
H           1.43860050040985   -0.00144589641797   -2.19962985168800
H           2.36038357545103   -0.19617009318713   -0.99202550167814
O          -1.15673039171297   -2.15208359027931   -0.55254569091777
H          -0.50505207129707   -2.56821067649197    0.05052737462684
H          -0.72322625352710   -1.31661432323771   -0.81431945625504
O          -2.48680339568994    1.39361952353376   -0.73483865200681
H          -1.53756386259897    1.12959552069966   -0.72007645080060
H          -2.72243482999599    1.49437454906731   -1.65838699012843
O           2.50959927317507    2.57212235442847   -1.09405401142535
H           2.52264825579299    1.69709800528277   -1.56073276379478
H           1.49434216757306    2.28396737785488    0.10602574620642
H           3.39194252558892    2.69836749531828   -0.73860599973059
N          -2.56093884713361   -0.62105002807506    1.00646053477090
H          -3.27651071821701   -0.90220197430029    1.66627523172978
H          -2.20244821108750   -1.41302377057530    0.38093114708641
H          -2.86103119275936    0.16106574257103    0.38747217228177
H          -1.66626488479562   -0.27837241485575    1.48266623933378
