    26
        -50.44828511  Gyration_radius:  2.56713679992 Dipole_moment: 7.354
 S          -2.14396924834983    1.08249473788996   -0.97572420415945
O          -1.42694475815241    1.39491349715951    0.25543709427169
O          -3.01002436250593    2.09566618541231   -1.45026965721933
O          -1.05810679726228    0.71402504748657   -2.03478146745611
O          -2.90123988898177   -0.22653319946853   -0.79827133278819
H          -2.28929378418932   -0.97309053548267   -0.39505157724948
H          -0.26615604249680    1.30204478316386   -1.81504083796010
O           1.86460125485202   -0.24673238583813    2.37749031430814
H           0.89148908144759   -0.14422205257437    2.39019807646541
H           2.04173313659023   -1.15041923797140    2.64432387737912
O          -1.35029536589705   -1.91679319245386    0.21853049970401
H          -1.11392010000353   -1.48425513560574    1.05563556653825
H          -0.53747338662354   -1.87867376097886   -0.36582443703778
O          -0.83512376520521   -0.13959518184773    2.25697830965499
H          -1.41404038649845    0.09154493523322    2.98516983285530
H          -1.05312029616963    0.49137194444917    1.52468586565512
O           0.81139714467356    2.12388089062332   -1.04483128128393
H           0.20523823502516    2.22485195602464   -0.29622755586972
H           1.50482930469861    1.49415328378897   -0.75174065754356
O           2.63259988219187    0.33816619107346   -0.10773149930379
H           2.36928743436797    0.15290349727723    0.82451832152352
H           3.51130291632363    0.71934768369742   -0.06989630121777
N           0.72239991702339   -1.59943220192606   -1.40909688321474
H           1.49066181527833   -1.05209937524144   -1.03379653613811
H           0.24105221399883   -1.01856731570639   -2.08755175884418
H           1.11311586579636   -2.39495104812623   -1.89713178103536
