    26
        -50.45309857  Gyration_radius:  2.44288516924 Dipole_moment: 3.686
 S           0.21098879180650    0.40677635625578   -1.49603217280845
O          -0.89042306583248   -0.43628495669961   -1.08566366389102
O          -0.12034159316292    1.79301198492988   -1.63343413196343
O           1.35550624836348    0.26271059776977   -0.46257816454221
O           0.81741027482836   -0.15671298126957   -2.76988250959097
H           0.86516326407717   -1.18012891167932   -2.58924183639405
H           1.40204347367830    1.12304990345794    0.09303199486947
O           1.86830938725193   -2.41495486819153    0.31212689363991
H           2.35525987343572   -1.59181211457143    0.21808941991536
H           1.09692081380102   -2.18350388607635    0.88809488530395
O          -0.99840787911337    1.66408009192078    2.12735552786914
H          -1.62207201906178    1.58618965244835    1.36456566885279
H          -1.43086005414082    2.22300756899985    2.77528451195280
O          -2.44689312753305    1.51296036864196   -0.09881138059167
H          -2.09507499017867    2.17027717068959   -0.70817390016953
H          -2.10994353561751    0.66988414179534   -0.44924984502911
O           1.12954455595644    2.46529265917235    0.73277551176953
H           0.41009490895766    2.23358461160673    1.36637003891986
H           0.69956028910073    2.82982015534576   -0.05217708081340
O           0.72392669343781   -2.55066177680628   -2.03943637957800
H          -0.20320261132363   -2.53855047157176   -1.78093630675320
H           1.23761255254165   -2.60402905396587   -1.18017544595652
N          -0.32529543455956   -1.46175716459573    1.58237389007315
H          -1.01575884375109   -2.03682051627590    2.04873398266421
H          -0.71897147739601   -1.15882905464697    0.69514538862614
H          -0.19509647555680   -0.62659950668584    2.14184509365725
