    26
        -50.44348317  Gyration_radius:  2.50922663969 Dipole_moment: 6.234
 S          -0.13882365031358    1.44425878167767   -1.69033135795480
O          -1.17410701562530    1.67218218937936   -0.70740165053766
O           0.02523845502252    2.41065788172738   -2.70988919696734
O           1.22150474325157    1.35529797019100   -0.89214679964972
O          -0.29477038653393    0.05295656779753   -2.29028337379852
H          -0.71623920957150   -0.62537943843921   -1.59852325157447
H           1.05919866630758    1.10233163120062    0.04481518093957
O           1.05754077885826   -1.85804176752872    0.75528744501524
H           1.13014603307071   -1.01988996240087    1.22676932856705
H           1.65532575217370   -1.78369334827964   -0.02454200783480
O          -1.61930982807388    1.66073815686091    1.82838661820235
H          -1.53546119628795    1.69955006221577    0.84073038473917
H          -2.11326940560591    2.44219672373411    2.08195165166210
O          -1.16360548970522   -1.59084293397434   -0.64684139911802
H          -0.36846566075916   -1.82218868685480   -0.10027674764741
H          -1.84391815969027   -1.28386378846557   -0.01231551329861
O           0.92818475356977    0.83391028568011    1.70231462988674
H           1.51754069336824    1.42461447598701    2.17508418552659
H           0.01140674899349    1.11805176974506    1.90116072443213
O          -2.64770043307514   -0.88392834873704    1.50290917824378
H          -2.29544700866181   -1.44405038103386    2.19727715077654
H          -2.38255386021282    0.02797459799293    1.70882815732383
N           2.36481386937806   -1.33677210860249   -1.57331717493786
H           3.22473632081840   -1.73495999385186   -1.92950534521103
H           2.46916732539244   -0.32804961382945   -1.54740676922010
H           1.62886715391037   -1.53306072220744   -2.24273405755727
