    26
        -50.45027411  Gyration_radius:  2.49870104084 Dipole_moment: 7.446
 S           0.27856390319836    0.32462339058680   -2.44999320278233
O          -0.65981164795854    1.41482130276856   -2.33719768278217
O           1.02929200314602    0.20784194998137   -3.64326643325984
O           1.23353653916186    0.37158759725091   -1.22881486050713
O          -0.47667328461526   -1.01290613976051   -2.22125794852058
H          -1.11262520954309   -0.91582096816521   -1.43412938116198
H           1.04736326472087    1.14750608010126   -0.52561128052355
O          -1.91186428111537   -0.76608379617244   -0.13119630384099
H          -1.32795911540369   -1.13779057004128    0.56074045919643
H          -2.00835992417484    0.18687647832124    0.04564539113188
O          -0.09281858304127   -1.98666068157605    1.46907531839874
H           0.55562994369752   -2.12891772156351    0.73289287887945
H          -0.36468372240699   -2.85934125137428    1.75756171118648
O          -1.88027344806522    1.95889533992016   -0.13440236366814
H          -1.47234107503438    1.81458211288859   -1.03000265367972
H          -2.60243937430566    2.57446793796553   -0.26755976047523
O           0.75872035628375    2.06269121715374    0.52327026694796
H           0.88960224124388    1.52090853830705    1.35622784384700
H          -0.19949127417106    2.21501462855855    0.44526464249369
O           1.49624490755096   -2.26545073771979   -0.63559881002639
H           0.97144881541135   -2.57789939639378   -1.37938292776192
H           1.67296411492736   -1.33074598592992   -0.83503465091391
N           1.01511828495602    0.48521244206849    2.64796132719213
H           0.61259659027789   -0.40194495245615    2.35556403143152
H           0.55583618769947    0.77292697624955    3.50258373558827
H           1.99242380778666    0.32560620922294    2.85666065362027
