    26
        -50.44655910  Gyration_radius:  2.46135400487 Dipole_moment: 3.722
 S          -0.34228313173580   -0.19936559621157    2.08382308036828
O          -1.21901326747214    0.76566012796701    1.46948369841584
O          -0.99453704791276   -1.37376187838683    2.56764055135871
O           0.74875123217382   -0.61368407615675    1.04810826917542
O           0.49846709467675    0.47552149570431    3.16158248153865
H           1.04627647863148    1.16724761151813    2.63760800116056
H           0.38784304550560   -1.42240600172696    0.57052536604095
O          -0.58136506178021   -2.56714808017857    0.10740367641978
H          -1.14431808180977   -2.10703059560771   -0.54952027547598
H          -1.05013978816462   -2.55955733759396    0.95381837911930
O          -1.52392351294168    1.57370640905352   -0.96612747895592
H          -2.13737205478985    2.31036130698022   -0.95884248473975
H          -1.41032325313001    1.30413532707929   -0.02172148086425
O           1.86257209780467    2.01628994846583    1.69272823370127
H           1.60217270806294    1.88766589979307    0.73327576682953
H           2.77446948981413    1.72220301137619    1.74919900846830
O           1.28395363773383    1.65427140396097   -0.83679202403348
H           0.34162989419889    1.81730030120528   -0.98264929195357
H           1.42203059652353    0.73619751085615   -1.15988596544271
O          -1.93263733424589   -1.01722968579476   -1.66661308100398
H          -1.76120384582565   -0.06931861522239   -1.48993871765909
H          -2.88427302871244   -1.11359918987640   -1.73101657618014
N           1.29463274635749   -0.85056500985049   -1.98943283298735
H           1.62938008046302   -1.59188044078243   -1.38714640534827
H           1.77885864773127   -0.92372078701832   -2.87554630760584
H           0.31035164879809   -1.02129306948177   -2.15996357033011
