    26
        -50.45046627  Gyration_radius:  2.61278599923 Dipole_moment: 5.264
 S           0.98131932350989    0.36900349972007    0.90050600620254
O           0.07716738362133    1.05248605881622    0.00339034061360
O           0.44559309181399    0.11418875664158    2.19942018269554
O           1.43119369862457   -0.94969124847474    0.22935688889270
O           2.28615256776678    1.14390596821272    1.01665061632858
H           2.69715409472766    1.23153805750816    0.08490423143198
H           0.65387938547565   -1.59549123643088    0.18750762404290
O          -0.57806368286154   -2.52459590338061    0.21203790912338
H          -0.31884364467245   -3.44757796494738    0.23993161596478
H          -0.98104098449782   -2.31353657925265    1.12782912655999
O          -2.05757866791874   -0.36461524709472   -0.86499408219180
H          -1.32651962563979    0.22714468485696   -0.61414887103897
H          -1.70951774551671   -1.25973750453169   -0.77170712065084
O           3.24156329623773    1.47292697460986   -1.30973894633813
H           2.43123221477722    1.52549007339037   -1.90410578295528
H           3.65878266307744    2.33720391141340   -1.33004449831449
O          -3.26391578648665   -0.05654059323774    1.52909853446884
H          -2.97082609722090    0.81918959605109    1.78714346436216
H          -3.00861767641256   -0.15996430138821    0.58632004747672
O          -1.45858301819321   -1.79034417724532    2.48838487821926
H          -0.76275272150189   -1.13402814300710    2.66386488332256
H          -2.25717462990455   -1.25701029556623    2.27198083366120
N           0.96802534944303    1.64952325493429   -2.63666042311937
H           0.73010990695651    0.88164120804440   -3.25163731810101
H           0.64912685475578    2.50514815027015   -3.07355967133765
H           0.44213446004592    1.52374301007008   -1.77173045931520
