    26
        -50.46708060  Gyration_radius:  2.46900002153 Dipole_moment: 4.697
 S          -0.51727176202825    0.74743691705520    0.71037162708660
O          -1.55892357602161   -0.23238019615900    1.01084621667647
O           0.29286064526161    1.05905152134004    1.87980762538422
O           0.49634111835861    0.00270471620081   -0.24850643003103
O          -1.01815234852242    1.90610799479179    0.01137456117086
O          -3.01074197469891    0.30542951510599   -1.13284810830317
H          -2.64588701518177   -0.00117346492981   -0.27858223749111
H          -2.98387732896378    1.26425075962428   -1.06392782727059
O           3.12130174403088   -0.59214050213780    0.18857007295755
H           2.24495895309971   -0.37830102811652   -0.18075553780815
H           3.66087701536882    0.19116362103015    0.06837171479194
O          -0.36963784674777   -2.52910317110515    1.21698885261126
H          -0.94384161280091   -1.72193509617954    1.18388638889747
H          -0.23655497063644   -2.78825611994774    0.30248471049905
O          -0.20943969709233    2.44367450546547   -2.45234236819870
H          -0.66002614555753    3.23472931429090   -2.75144444019716
H          -0.44192207289398    2.33875183061475   -1.50408681311782
O          -0.74632200575005   -0.20292308351162   -2.42590294358726
H          -1.67870999785439   -0.12789884953428   -2.10691828299385
H          -0.51713082845446    0.68450381998463   -2.76172394386386
H           0.01907241777753   -0.13172585113624   -1.15381272636681
N           1.56396891750821   -1.11282963947660    2.32670336060694
H           0.87865513258175   -1.82968966810350    1.95559591040222
H           1.84742382389590   -1.31615728247502    3.27874805824091
H           2.37229446318161   -1.04773491176139    1.67548840821899
H           1.04068493214827   -0.16555564090888    2.25161416168554
