    26
        -50.45239029  Gyration_radius:  2.4370472645 Dipole_moment: 6.076
 S           0.32467214570398   -1.36877406072249   -1.60693874430729
O           1.59574405370227   -1.05814771820000   -0.96923542664444
O           0.39689907986663   -2.09293668001525   -2.81851067217741
O          -0.52817299046272   -2.13292579217778   -0.57808030951167
O          -0.42911743450807   -0.03706390148871   -1.81816475791724
H          -0.13131437083654    0.65724279507398   -1.13132080580671
H          -1.15842763091347   -1.51804547249890   -0.01860872652560
O           1.44205246920737   -1.88874246014435    1.52200241989063
H           1.63441323624491   -1.62845721198250    0.59443135540828
H           0.82420021807934   -2.62097799749171    1.44971606614487
O           2.90362155429855    1.25221010808679   -0.68284887318521
H           3.64435955347119    1.10798389034361   -0.09164383096951
H           2.57065815991750    0.36618337105426   -0.92406209505874
O           0.32830420315925    1.68077848675504   -0.09113792863708
H           1.28281110836572    1.74856645574672   -0.30514677418351
H           0.28324951122700    1.26809920060648    0.79193903675461
O           0.18258976312141    0.28639949574025    2.25469597751599
H           0.37281653117429    0.52166797989366    3.16338485981518
H           0.70894787750154   -0.53505642822467    2.05427296085257
O          -1.96454754875350   -0.63262973888806    0.81991668347355
H          -2.29844064180658    0.13095349562326    0.27173596278537
H          -1.34449085445251   -0.25189040171287    1.46519834090754
N          -2.65749786107280    1.48453085149457   -0.65897616381565
H          -3.54506096616070    1.96825491330016   -0.61558023160359
H          -2.52204607904010    1.14196132622696   -1.60257517152793
H          -1.91622308704184    2.15081546359074   -0.47446314164132
