    26
        -50.45003066  Gyration_radius:  2.66039115222 Dipole_moment: 2.380
 S          -0.32195016632995    1.20503565923667    0.29014006472600
O          -1.03744126735399   -0.03426287883844    0.49183082648007
O           1.06815046041538    1.14230944338141    0.62518293774523
O          -0.49397777168289    1.65980432359014   -1.16684584498731
O          -0.99709400461395    2.32081328149582    1.08571038670611
H          -1.86469160043306    2.55278127220251    0.58898892145811
H           0.29981573250849    1.20972469428612   -1.69305251845668
O           0.39658130158365   -1.71369755516566   -1.17375438029668
H           1.07092486856894   -2.20136582470174   -0.62951221046097
H          -0.20635219860221   -1.30017244780953   -0.53964400489563
O          -3.04166585539731    2.68645907760976   -0.35598957883881
H          -2.61609113808976    2.77409816129983   -1.21445606742349
H          -3.43101001693004    1.77733947807179   -0.33956015166681
O          -3.59875330130979    0.11304607962434   -0.20767731587120
H          -2.66434463214579   -0.08157127472012    0.01138616280582
H          -4.12845601779711   -0.28570554901908    0.48507662665834
O           2.59264488069569   -0.53326864584263    2.14473193418571
H           2.08301510889917    0.08185426805831    1.59117851261668
H           2.52005681711333   -0.20271176700995    3.04134367642599
O           1.45171326006519    0.43625085324624   -2.10283754967932
H           2.08649720259121    0.63714676224617   -1.40685844879908
H           1.09645565590546   -0.48553233112067   -1.88751309800501
N           2.24649432560992   -2.86423803389838    0.40437809708625
H           3.12529694156587   -3.09894871708298   -0.03953202773079
H           1.93582255241282   -3.67591697244279    0.92307208169874
H           2.42835888275130   -2.11927134669803    1.07421297853741
