    26
        -50.45164201  Gyration_radius:  2.43072921649 Dipole_moment: 7.818
 S           1.55460915744987   -0.26960387171497    1.72635307545157
O           1.05873164202258    1.04772032410564    1.36215822567184
O           1.69490897542531   -0.53080452635718    3.11799039643455
O           0.42218056385650   -1.29235480600488    1.14881012261530
O           2.70303298484639   -0.62395200014836    0.87855815511277
H           2.24033691598371   -0.01924254529028   -0.30359040803453
H          -0.46523686224850   -0.95890798571528    1.40396673899350
O          -2.12499046169142   -0.54100242160764    1.31446754667828
H          -2.18259549746762   -0.57172314228173    0.32225002649040
H          -2.72642136526441   -1.20706727718730    1.65001047137065
O          -1.29845535194830    2.13508257964620    1.20577578923640
H          -1.83986170100316    1.36787433027864    1.43389320073309
H          -0.39005168645288    1.88004889291717    1.47881385506832
O           0.43259575983118   -2.06118246069614   -1.39437121675329
H           0.73669812900052   -2.96253742475047   -1.50885855267220
H           0.46313702284506   -1.87979102156242   -0.42526211775726
O          -0.55898229414307    1.80285602039356   -1.25824190479268
H          -0.86568172171100    1.96793075892014   -0.31257133193734
H          -0.65423738073409    2.64389246536042   -1.70654158007262
O          -1.95585957591883   -0.57536644457786   -1.32140552149465
H          -1.55930850887076    0.30373249550152   -1.45103340176283
H          -1.24845926695693   -1.20888083525321   -1.50841810003628
N           1.76560685079223    0.32673512705434   -1.25883909426741
H           1.34992385154944   -0.52036742828191   -1.67598912688848
H           2.45124609557336    0.75063833301714   -1.87445104190940
H           0.99713371524143    0.99627288423275   -1.04347419547196
