    26
        -50.44936555  Gyration_radius:  2.4345683679 Dipole_moment: 3.134
 S           1.72981128628151    1.31186223888981   -0.29580762256241
O           0.60925493622177    1.87795995794515    0.42169531679359
O           3.01382071046164    1.64607960117932    0.20074779004195
O           1.54004578524364   -0.23975521963485   -0.31098503368961
O           1.60759688983223    1.63459307295104   -1.78495473052937
H           0.68776601383153    1.31590631253844   -2.07346965253077
H           1.37022673717079   -0.55417083943932    0.63000641603020
O          -0.49001235490618    1.08707900122835    2.75446523505767
H          -0.04775158738221    1.65445352742296    2.09955681013943
H          -1.37804743033555    0.95716142480876    2.40560938976877
O          -0.09833279431767   -1.77150243601199   -2.00922404484523
H           0.80933215677719   -1.65072881416217   -1.71305796289680
H          -0.60622342644777   -1.95802575464021   -1.16743959074015
O           1.10986676762999   -0.89766416289359    2.13493458162497
H           1.92336968033226   -0.75636639616053    2.62365505046540
H           0.46658965638683   -0.20851785718762    2.46008947813188
O          -1.87198778327398    0.85879839920961    0.10825427162980
H          -1.00274667688904    1.29087723099893    0.19592509776981
H          -2.04824658565170    0.87429404998020   -0.83659466774138
O          -0.65051128204346    0.69336697132088   -2.51039977657833
H          -0.49192174190853   -0.29457725167888   -2.34097425248286
H          -0.72904710583252    0.79077121819488   -3.46157207908540
N          -1.26454266449171   -1.97115725451311    0.37002522015427
H          -2.02002892016472   -2.60423079607630    0.59656238185021
H          -1.62158293777279   -1.01685510113953    0.42521109553682
H          -0.54669729920645   -2.06965114333938    1.07774127918280
