    26
        -50.45695817  Gyration_radius:  2.43962706878 Dipole_moment: 1.625
 S          -0.66407314054056   -0.55619166508907   -1.09378830349290
O           0.46954486616326   -1.33292148575734   -0.63891870275556
O          -1.93884151993621   -1.09692935338389   -0.72466000354126
O          -0.53392220929593    0.87518737259813   -0.53280097063944
O          -0.57871556164203   -0.34370696173806   -2.59060901457611
H           0.43966789065939   -0.19136717725664   -2.77877418153443
H          -0.67369028505619    0.86424510361821    0.50729176055099
O          -0.58645444498123   -1.95803655560245    1.74547285015106
H          -0.11845921910217   -1.92810037172654    0.89227479951507
H          -1.45453377750427   -2.32133836817162    1.55284014020422
O          -0.97052492586513    0.66365549952043    1.92180733838273
H          -0.75969904876503   -0.29063047231695    2.06478251509618
H          -1.94862862112845    0.68736500967518    1.88127819229282
O          -3.46448386957109    0.18341539478730    1.09236145296136
H          -3.04074065310683   -0.35711871876509    0.39885278826657
H          -4.11955774967224    0.72563527068699    0.65070654985663
O           2.05081678251333    1.98166965937917   -1.09004898116624
H           1.11796677958574    2.20686743883323   -1.02373269033737
H           2.25232296201115    1.49559902340123   -0.25129584787572
O           1.89352958744305   -0.05475346229669   -2.70872134367079
H           2.09494515859860   -0.77265776523993   -2.09858800005645
H           2.05567827630863    0.79229332944279   -2.19580555131095
N           2.18471993952340    0.37947159789616    1.07511788534039
H           3.01409371933932    0.02370107072508    1.53311524097843
H           1.71952818629296   -0.40003480597155    0.61823473697476
H           1.55951086768295    0.72468139280270    1.79360733031850
