    26
        -50.46648647  Gyration_radius:  2.38914589884 Dipole_moment: 7.017
 S          -1.52634357429038   -0.74280352187743    0.31604476699562
O          -1.27002190235316    0.62325373331484   -0.23381154296609
O          -2.77577974817208   -1.26657482110010   -0.12195026809441
O          -0.36320953789301   -1.58073294668855    0.03353248777175
O          -1.55891413271987   -0.52524973766433    1.87092645943421
H          -0.65572124030455   -0.76712771807614    2.20044759361697
H           0.47665554240808   -1.85138848003041   -1.48087389323233
O          -0.34089804317404    2.08443065883887    1.75897814686473
H          -0.77031243274519    1.74978460062132    2.55033878732937
H          -0.80702285357408    1.64199504043527    1.01471534370023
O          -1.73754449529083   -0.59601221405874   -2.63606538789756
H          -1.72676440736267   -0.01003104371963   -1.86502196782149
H          -2.40597851444107   -1.24993305558088   -2.41091015690440
O           0.79500617128836   -1.51331509662184   -2.34235080040966
H           1.18511567952844   -0.13363474038707   -1.76185207634502
H          -0.03806921319737   -1.29340389534484   -2.80347679980684
O           2.09559862914674    1.20477706548042    1.30373229991678
H           2.75849690739516    1.70337020708806    1.78328554488392
H           1.21595667469861    1.61318364415976    1.52579101480923
O           0.94570022420250   -1.16548576725033    2.26095442387419
H           1.51381912413078   -0.41679413462455    2.01882827393320
H           0.72274140812345   -1.60517725200545    1.41983331079713
N           1.12284087830139    0.81282181646400   -1.24281675163511
H           1.25473214920678    1.59575645490585   -1.87433394044887
H           1.76102308619272    0.87494316579816   -0.43471090179424
H           0.12889361084649    0.81334803780662   -0.84923396646436
