    26
        -50.44964916  Gyration_radius:  2.52466041302 Dipole_moment: 5.008
 S          -1.09786588896862   -0.55519207361208   -1.41100020523336
O          -1.05812991127997   -1.32529720254644   -0.17707141038340
O          -2.39035385074981   -0.35481001091249   -1.95337328160171
O          -0.39367905049327    0.80609033269837   -1.11750206980987
O          -0.15376278465632   -1.17621150466565   -2.42504917447160
H           0.79808600456675   -1.23993283105925   -1.99764047859403
H          -0.89206355557708    1.26544889555084   -0.35898502718870
O           2.10073456479019   -1.17378335636433   -1.32561105389299
H           2.38736112397352   -0.25010048331672   -1.54347346353166
H           1.92817469322581   -1.17926876269824   -0.36447134777783
O          -2.48632446316476   -1.23675603859388    2.12569178561389
H          -3.32536572440733   -0.81454440577268    1.93320835944910
H          -2.06508115437961   -1.39491758567306    1.26188181020154
O          -0.50124372918744    0.47835076576469    2.76650749931141
H           0.24719616075107    0.01149291609863    2.36052022943513
H          -1.22935980356017   -0.17700375644204    2.78891182756641
O          -1.53185245625152    1.90037810666813    0.85938605189047
H          -1.30213103453328    2.82347837836594    0.98141750026661
H          -1.14303639638356    1.40371426717464    1.64352221069715
O           1.11838145556836   -1.21875840930325    1.23236996636842
H           0.27147733540543   -1.28817754915426    0.72514470221216
H           1.22730862021434   -2.05965309581325    1.68146659569791
N           2.44116334585533    1.43531660294732   -1.86727406138874
H           2.94346250756282    2.07333471766001   -1.26370156390348
H           1.44559188059136    1.57817614192398   -1.72810193580587
H           2.66131211146183    1.66862594135002   -2.82677349508681
