    26
        -50.46796290  Gyration_radius:  2.51091003049 Dipole_moment: 3.900
 S           0.30965676408207    0.44818630338735   -0.96274702909949
O          -0.94866323907865    1.09146140932155   -0.59095336236117
O           1.44291487738484    1.32282545262978   -0.74968548318301
O           0.47043436323632   -0.81061699258215   -0.20712303526816
O           0.25854381113561    0.08666532703829   -2.45906211266529
O          -3.00428558726005   -0.61242549369726   -0.60372129304794
H          -2.70113283039163   -1.22546369516731    0.09160677732326
H          -2.39694434603840    0.15084313580515   -0.54351010309478
O           3.52473461963349    0.85190328515063    0.78664851010404
H           4.12715677318505    1.59403325809654    0.72064301373538
H           2.84427914941016    0.98904847064821    0.08587353627225
O          -1.45164422250545   -2.31051985192358    0.86977084012037
H          -1.46351512284427   -3.15290269781065    0.41178299743908
H          -0.72665002768051   -1.79647908371390    0.45838587147771
O          -0.03393793272419    2.34497322777471    1.50301857100199
H           0.59787416077783    2.92801880470818    1.07359483350733
H          -0.53384970403498    1.94290537922778    0.75191515168826
O          -1.74845832269566   -1.51023494210510   -2.69383431827693
H          -0.48561205635926   -0.57946540561539   -2.56775332089685
H          -2.32049676379387   -1.23123629164965   -1.91775933848565
H          -2.23364774703847   -1.26278254842546   -3.48342412153366
N           1.30022740946217    0.13534217526637    2.04959671570151
H           2.30212993576393    0.35488888535455    1.86713059363421
H           0.96659162302939   -0.39378096913574    1.18065442995138
H           1.15460523315977   -0.39882321764678    2.89938284975730
H           0.74968918217854    1.04363606506292    2.02956882620316
