    26
        -50.44804669  Gyration_radius:  2.49726053009 Dipole_moment: 5.685
 S           0.06387979180309    0.27162158219117   -1.85580437028146
O          -0.56854907876817    0.80431965946300   -0.66856810598482
O           0.57514316400526    1.25928463958091   -2.74811542656935
O           1.14791069933640   -0.71780989663673   -1.41167232763427
O          -0.94139888290809   -0.63161553217383   -2.60219702760401
H          -1.05006023397996   -1.45013064471361   -2.03662608325646
H           1.70446184950073   -0.27602324942224   -0.56627534084608
O           0.61663102599172   -0.39317710006998    2.49393207651382
H          -0.14155675356597   -0.88485105953407    2.13138076196619
H           1.11209398144695   -1.01131002811154    3.03442563794217
O          -2.72310856158304    0.40218947503681    0.74884950947906
H          -2.69624426485499    1.11236903738212    1.39326856319598
H          -1.99421887509482    0.59727647328177    0.11606161841720
O          -1.56049452664284   -1.80001152577924    1.53351088544340
H          -2.07052791318551   -0.99056515925248    1.25208111659193
H          -2.18829016895635   -2.37803031583210    1.97050249316575
O           2.26191971751086    0.35554440904817    0.49117971717407
H           2.13549843079689    1.31252768206246    0.20813212041475
H           1.64023997597301    0.19308612410866    1.23670779460888
O          -0.78227413503242   -2.61054266420483   -0.95156682340076
H           0.16985207717002   -2.45563695552882   -0.97085588299295
H          -1.08180370178803   -2.35773616218515   -0.05462861197784
N           1.71254901371482    2.71753276664093   -0.53313570215080
H           1.39331189441042    2.35614528260883   -1.43083701516223
H           2.36589084319797    3.47097397023900   -0.70844587138286
H           0.89914463162558    3.10456919191400   -0.07130370574423
