    26
        -50.45227214  Gyration_radius:  2.57066801182 Dipole_moment: 1.954
 S           0.11077944123566   -0.24341309903536   -1.38976385895113
O           1.05906294654668   -0.28258728641097   -0.28952895783060
O          -0.36515364536053   -1.52414547443495   -1.79107754154055
O          -1.04308944328541    0.69211645072708   -0.98590126564019
O           0.73284063316138    0.48390300240618   -2.57813778561114
H           0.73743425780276    1.47058328355822   -2.33470596030248
H          -1.37778235181922    0.48538055394418   -0.00720176087683
O           0.54326318612263    2.88956264972676   -1.79401988965563
H          -0.37278433746786    2.87228980347267   -1.50157937534693
H           1.08844800220605    3.08306392516670   -0.99317838140292
O          -0.25247606160214   -1.97599521240066    1.47184449221915
H          -0.71806006585734   -2.70384474899929    0.99258740086321
H           0.39555629302566   -1.63046678425961    0.84152519629934
O           0.90512689479261    1.15836098784694    1.89794816585088
H           1.00805743854744    0.60919689256028    1.08520339818842
H           1.30797994772092    0.65408207449566    2.60774895674802
O           1.94445313826935    3.21233110763597    0.44952664132957
H           1.54657135080727    2.59077061580331    1.08868831658491
H           2.86174280426046    2.95307052607205    0.34647068499500
O          -1.64083433853815    0.21767760008946    1.38649458712419
H          -1.00929048808630    0.81122560475632    1.82467773035055
H          -1.25229235768215   -0.69632797334254    1.51855211879581
N          -1.46749243578281   -3.69297491583053   -0.21587769524615
H          -1.15897127098828   -3.07434859018130   -0.96390025513226
H          -2.47774101361647   -3.74186740885804   -0.25482910190045
H          -1.10534850417430   -4.61764356441529   -0.41156585976565
