    26
        -50.45465442  Gyration_radius:  2.46312437524 Dipole_moment: 5.245
 S          -1.28157004619199    1.26735021897561   -0.88824424877498
O           0.14744100746327    1.13503537548518   -0.61896103818640
O          -1.59326841545021    1.23327453395020   -2.27604157234035
O          -2.01686452708339    0.17839765848675   -0.09924987850089
O          -1.80050245625552    2.55217635370205   -0.24817327299928
H          -1.83662194699669    2.42813532668091    0.76415334804754
H          -1.66946667796274   -0.77405726669089   -0.33690204478297
O           0.88894453642725   -2.05212246830848    1.26562571269520
H           1.57953991102592   -1.60477028201793    0.69617308793527
H           1.28616153722665   -2.84680954110054    1.62344291006944
O           0.32799382006748    0.60656372625027    2.00090816752664
H           0.37594317799120    0.83410278140594    1.05373049700775
H           0.34818475538869   -0.36038313571545    2.02646728694648
O           0.40602678088904   -0.70592033468475   -2.60052330903465
H           0.44559677606801    0.04813341230343   -1.98809739954930
H          -0.23555065380602   -0.43632380189444   -3.26427574438091
O          -1.72379035071890    2.21003960570009    2.27468398983448
H          -1.01184306553404    1.52036434764606    2.32202030973613
H          -1.36733347114608    2.99682467084728    2.69403387697239
O          -0.96997827852929   -2.02057645645164   -0.69025939453210
H          -0.42335760404239   -1.74571304927842   -1.45766077760553
H          -0.35150565382919   -2.14221542566037    0.06178350628518
N           2.52215108536006   -0.75193244978009   -0.38398630700654
H           3.50222007119811   -0.55657470828479   -0.22283428991964
H           2.02488405278570    0.13369995147842   -0.39479333967917
H           2.42656563492535   -1.14669906323957   -1.31302008633166
