    26
        -50.44431497  Gyration_radius:  2.45377837826 Dipole_moment: 4.619
 S           1.85943358684764   -0.27261322954911   -1.11674209686202
O           0.64177202316312   -0.25804518618373   -1.89598149885628
O           3.00261081347553    0.29093123643281   -1.73472389156183
O           1.54767573560817    0.46303479146883    0.23094034746638
O           2.14339671486845   -1.68907009054994   -0.61835206678950
H           1.27717625724097   -2.01689184962632   -0.20823951193128
H           1.04293913036310    1.29714991699900    0.03588974381315
O          -1.30910401166887   -0.41885228402712    1.42610259887723
H          -0.77170055549517    0.24294295429644    1.91856628392712
H          -1.59659760016247    0.03119295614178    0.61001575264710
O          -0.05175545567609   -2.42798837674259    0.44215891536360
H          -0.53161467733339   -1.63807983870068    0.86137792755745
H           0.09309837163619   -3.05892769330069    1.14957104890270
O          -1.70693050818523    0.66026398226300   -1.06053537488435
H          -2.37727296220091    0.07162130243519   -1.42638465874618
H          -0.86575440443806    0.29918637779080   -1.41682251410518
O           0.12173170405179    2.55755132699671   -0.42543046278197
H          -0.72479496623415    2.10679844054667   -0.59567826097375
H           0.44408704301346    2.85962726178471   -1.27791789394110
O          -1.59012389057821   -2.01750322577244   -1.99036311046595
H          -1.28828792643798   -2.43832345410366   -1.17765118566979
H          -0.80451007638655   -1.59606690241238   -2.35695727267896
N           0.18019811956859    1.54483716059269    2.60097346923536
H           1.12498981347924    1.21595601940479    2.44316666144527
H           0.09675950974177    1.83153064151387    3.56784840875271
H           0.04257822169225    2.35973774221124    2.01516863227954
