    26
        -50.46977744  Gyration_radius:  2.44207717976 Dipole_moment: 4.813
 S          -0.97683868709410    1.09869984448711   -0.41949519743479
O          -1.29851640830915   -0.15618817828448    0.25400557195359
O          -1.05399290977440    2.23627137045330    0.44342576966642
O           0.34252937692978    0.98694296792427   -1.08352235479425
O          -2.02391564752608    1.21291239557179   -1.58406977595532
H          -1.71093469797939    1.96723414930212   -2.11751096913535
H           1.51964739825408    0.70706227061276    0.15813446304123
O          -0.35669068874101    2.88215565924325   -2.81191905856708
H          -0.03513958292139    2.66135371123599   -3.68927693670934
H           0.16368566534648    2.35014736586597   -2.18268060897629
O          -0.79875494315537   -2.13957404262778    2.02234199758590
H          -0.61780996936259   -1.56395934122294    2.77338596234581
H          -1.23133942957479   -1.55726594521359    1.37206397964096
O           1.97353518398053    0.32570862055701    0.93638018859027
H           1.74693810554551   -1.19814045350568    0.66639250933705
H           1.38122408292861    0.52248789106664    1.69042980167388
O          -0.16454576486408    0.67403444236144    2.56951012647771
H          -0.30528564402448    1.61396848216358    2.71109670770968
H          -0.69073774060591    0.47996005968291    1.77165740764054
O           0.01803141554561   -1.51546011353179   -1.78516363810472
H           0.21938881189267   -0.55965798355784   -1.66126018894883
H          -0.90626573588576   -1.58582071747500   -1.52656350068176
N           1.33400259216916   -2.16100869452837    0.43434297638105
H           0.56006056130412   -2.33131569609895    1.13098979997479
H           2.03349598077815   -2.89414357865716    0.44291244303177
H           0.87822868523128   -2.05640447577707   -0.51560746570906
