    26
        -50.44630539  Gyration_radius:  2.69401176815 Dipole_moment: 7.791
 S          -1.53437721123672    2.09807557762049   -1.56824664448126
O          -0.46053370737375    1.21876935206646   -2.00739396734244
O          -2.23234430659827    2.78847737239164   -2.58515548078809
O          -2.53904500125764    1.25849042965133   -0.74926439731686
O          -0.94245638719373    3.06126599357306   -0.51303081284496
H           0.06677345209633    2.97093243817847   -0.52977462649108
H          -2.03881517126972    0.70483910837426   -0.07543700335335
O           1.43110852207112    0.64410090470517    1.27888494588456
H           1.92292121460196    0.77888775570238    2.08939135920299
H           1.71634052050239   -0.24626189266669    0.91321993830475
O          -0.18197443285560   -1.34423660880585   -1.54272866008825
H          -0.65247269755302   -1.83619626396991   -2.21685240019226
H          -0.22349081367081   -0.39872071521583   -1.81644250340396
O          -1.10710472675647   -0.24717898950271    0.77718988197076
H          -0.81221088213047   -0.81613563320067    0.03959757183146
H          -0.30483079068110    0.22747924560136    1.06611580108642
O           1.52408812622410    2.47400004039068   -0.70500201344341
H           1.27165849710141    1.92567158922084   -1.46142928244820
H           1.61329475636484    1.85785650372090    0.05161472548454
O           1.85409544461222   -1.74063929729077    0.34568587965216
H           1.35888085000253   -1.72087343254832   -0.48556887503851
H           1.28172442096110   -2.23940374732584    0.97339117256341
N          -0.03134113936485   -2.79508593011444    2.03113600055650
H          -0.72565692389012   -2.05584987422867    1.97042565797538
H           0.21105670008542   -2.91563946744183    3.00641302457647
H          -0.46528834272512   -3.65262446871026    1.71326069812109
