    26
        -50.45347703  Gyration_radius:  2.49726735105 Dipole_moment: 3.632
 S           0.59991494274616    0.63227638704352    1.49451119078215
O           1.09441100137293   -0.49254377385409    0.72661207692964
O           1.23969206623626    1.86792469267798    1.18999937512313
O          -0.93072530317984    0.72984719336043    1.28010357865067
O           0.67723509591243    0.32415670968194    2.98421048626231
H          -0.03411778817704   -0.38836545126800    3.15363383587051
H          -1.17943763192771    0.91112483547793    0.29958658355159
O          -1.23489286721424   -1.34257707365383    3.15094426338012
H          -1.12037694464545   -1.89781503141627    2.34009745342306
H          -1.97927774093205   -0.76217394318039    2.96962256159695
O          -1.48703009958716    0.99341611637342   -1.16761397522157
H          -2.06860573879110    0.25048362941352   -1.36784862581047
H          -0.61173881039421    0.73918562286709   -1.56214712007653
O           0.84178235270916   -0.01268152639197   -1.89095152900632
H           1.37492879777298    0.81373083000754   -2.01028292701139
H           1.07768112086729   -0.30186004074319   -0.98881698990202
O          -0.72652335082659   -2.44011672567034    0.79599159066805
H           0.07969131835570   -1.89516060432638    0.75379335038634
H          -1.17307242080044   -2.28599767675133   -0.05125127954797
O          -1.34473316197853   -1.76967836244887   -1.86498469403538
H          -1.36689691118889   -2.54574766863876   -2.42686613864532
H          -0.50413309378501   -1.31841681271240   -2.04815394005036
N           2.09883032429753    2.32276956764294   -1.57444594181725
H           3.10359611220143    2.40666380684151   -1.66784622755355
H           1.88789114009242    2.28982366947265   -0.57689887004411
H           1.68590758084183    3.17173163016778   -1.94099808793271
