    26
        -50.45230305  Gyration_radius:  2.44456178076 Dipole_moment: 3.505
 S           0.72452824439986   -1.75467847540025   -0.59400936860729
O          -0.18626557972462   -0.96427265188135   -1.38741073620256
O           1.81846897484129   -2.31920699440886   -1.30392783610571
O           1.25499228586986   -0.87886784766428    0.57462491829546
O          -0.07519498829240   -2.83069741239411    0.15861346883281
H          -0.79386981195748   -2.35914701754124    0.68307702221402
H           2.06162391196672   -0.36444623294137    0.15591632732542
O          -0.24784142271344    0.47233248530047    2.45961830913712
H          -0.95291697795470   -0.18805114170326    2.44591775310129
H           0.49037577982669    0.04950988222358    1.99843350115286
O          -0.89775340136926    2.29417125547693    0.62032043657762
H          -0.59853231294998    1.69550532765246    1.34691645219099
H          -1.27289529568282    3.06538750941944    1.04773689877844
O          -2.36064357831514    0.22125574870340   -0.40156548134942
H          -1.68083275439770   -0.18399985885318   -0.97150979575575
H          -1.96011269279833    1.06127353213870   -0.10279721990504
O           3.01589988969271    0.25708860610955   -0.75674352463010
H           3.13539364833416   -0.47809861257479   -1.36832878120909
H           2.37440369719640    0.90948275314833   -1.18877574777511
O          -1.93598246032014   -1.54651894463424    1.41614852656301
H          -2.70235111757730   -2.11393400190939    1.51960998658785
H          -2.19195742579722   -0.84087383371669    0.73490593418950
N           1.00783803434058    1.63941002838127   -1.70812502363348
H           0.97781106925174    2.24102965173216   -2.52115034698407
H           0.52885227105385    2.11533737669326   -0.94908326414921
H           0.46696201308936    0.80100886864291   -1.90841240865189
