    26
        -50.46930067  Gyration_radius:  2.43455380776 Dipole_moment: 3.382
 S           0.59052507449361   -0.56521519136553   -0.95772093075264
O           0.46667657987070   -0.81454636479123   -2.47330373820022
O           1.54510171469777   -1.50634911287292   -0.41324803207848
O           1.00614512750286    0.82101821428414   -0.74726568248750
O          -0.74199827111795   -0.78018082642355   -0.36009487704785
O          -2.45265877961852    1.14561869721146   -1.02034849178037
H          -2.00898361120594    0.31048136518658   -0.77421040760530
H          -2.07940073941407    1.78682549641680   -0.39434684104487
O           2.30772514135277    0.49608316837056    1.49780998668730
H           2.80863238007801   -0.30757736688287    1.32955530415405
H           1.97835115372412    0.76603308632678    0.61087667561324
O           0.84501417361589   -2.91470182985456    1.71373451633514
H           0.33523323818922   -3.66599931155891    1.40691120735620
H           1.18816108856776   -2.47867177763167    0.89786818160381
O          -0.64639119246758    2.24145448483899    0.76084384117101
H          -0.03092887727441    1.75270285601253    0.17171953377945
H          -0.31409961501379    3.13978144479867    0.78926564484554
O          -1.09908627116396    1.07903355827960   -3.26994407517668
H          -1.69178910612793    0.74457379949178   -3.94646245219630
H          -1.65893371391766    1.22758601924142   -2.46007064617466
H          -0.08279297390171   -0.05449973015578   -2.82842778039767
N          -0.07434201301012   -0.47094539007653    2.13170002705328
H          -0.49842230996089   -0.48753474881070    1.15487934845842
H           0.85300996121859    0.03907591939490    2.04511595208230
H          -0.69299231977578   -0.03214537235662    2.80516315877431
H           0.14824416063885   -1.47190108704953    2.33000057700874
