    26
        -50.45230307  Gyration_radius:  2.44457314247 Dipole_moment: 3.502
 S          -1.02958914640519   -1.37531358035989    1.00147905426939
O          -1.63962569568003   -0.43970539678751    0.08699841673924
O          -1.48320851670571   -2.71764290906270    0.89245056252871
O           0.51142280587349   -1.32639960243551    0.80888088515245
O          -1.18328584426967   -0.84258579890936    2.43549417430746
H          -0.79238801733819    0.08515134449326    2.45489414726192
H           0.68614024974490   -1.98442912958378    0.01707726581359
O           1.23521326969442    1.72112944132801   -1.40260104707389
H           1.80356040704857    2.41313437560984   -1.74360585566672
H           1.66294458360369    1.39810039570612   -0.57280341529185
O          -0.22419428973964    1.55946926750995    2.37954233396485
H          -0.66661145437523    2.09607222003399    3.04005352798421
H          -0.55083380529587    1.88805505652272    1.47792303190607
O           2.14090211227220    0.89994927119928    0.97007736775873
H           1.58172544850288    1.32470490155705    1.63366623462830
H           1.83045309739925   -0.01614906126221    0.94078686574335
O          -1.05733503259490    2.16063978010995    0.02289009171583
H          -0.29017680706095    2.13507679511862   -0.58222959197552
H          -1.46953763852924    1.28147291402945   -0.06870384138387
O           0.55715812353581   -2.84583926514159   -1.15409226129850
H          -0.23571321119100   -3.32874643841173   -0.89528729481158
H           0.27481959007214   -2.12889935714226   -1.80984435101913
N          -0.29841054347165   -0.73728026919763   -2.44664517248072
H           0.37116860290597    0.02040830330028   -2.34878903626316
H          -1.03305789705661   -0.56151319627310   -1.76473686998893
H          -0.70154037093570   -0.67886004194916   -3.37287522251946
