    26
        -50.44895815  Gyration_radius:  2.47930804756 Dipole_moment: 6.164
 S          -0.15554996334028   -0.36363901951286    1.49942587970964
O          -0.81681904074260   -0.57414217276910    0.23321901787573
O          -1.01200162645905   -0.19588632534731    2.62539127862393
O           0.86990922931494   -1.47258158470789    1.74516689513782
O           0.72992228768394    0.90227163484136    1.39097302763929
H           1.24753593843138    0.86300862691915    0.52291366503651
H           0.80147864746337   -2.28504709804521    1.11949409049951
O          -0.94913532087986    3.09799612394846    0.43863926714885
H          -1.76120704980087    2.66072380680842    0.76482294771658
H          -0.26135191011659    2.83433557459738    1.05699665177944
O          -2.79668389316938    1.32914145710885    1.31878596047738
H          -3.06703655569356    0.69936342158899    0.64717344182618
H          -2.27064647049186    0.82006826326580    1.95929837466998
O           0.91784816886599   -3.43660861734544    0.16367180472003
H           1.80079858929230   -3.80370334721808    0.24711426701344
H           0.88530366657191   -2.93296383946809   -0.70796622121739
O           1.85847393085708    0.95215960501662   -0.90979542294744
H           2.38187197532539    1.75384306530954   -0.97373666284075
H           0.96836075757762    1.16047151799685   -1.33988670910695
O          -0.57316750739262    1.42151082493170   -1.60570778447972
H          -0.76094963747224    2.20351917025599   -1.03796790568879
H          -0.89928736374663    0.66913981622484   -1.08453818984882
N           0.78658994218594   -1.80805126659997   -1.88831981159311
H          -0.00860206194196   -1.35335429374651   -1.44695391034521
H           0.54079514404462   -2.00760543198633   -2.84927840214407
H           1.54355013362752   -1.13396992207848   -1.88893551964994
