    26
        -50.44937123  Gyration_radius:  2.50250443495 Dipole_moment: 6.206
 S           1.84712468218967   -0.62317301508298   -1.52834271998061
O           0.90815951627572    0.35285604215454   -2.05293397858033
O           2.54460270085053   -1.39632229129979   -2.48642086847794
O           2.79862352284074    0.10496364151110   -0.57123000691622
O           1.04008017177208   -1.58237967248824   -0.59921566734443
H           0.99996446335506   -1.18470792199680    0.34123207733262
H           2.32085243226365    0.98223983165715   -0.26109099639310
O          -1.73153256341357   -2.03698433693718   -0.34060967771173
H          -0.80884912955635   -2.26569081409436   -0.51203845891457
H          -1.87248207735331   -1.20138311327499   -0.81888128488072
O           0.77669933034257   -0.55180714710495    1.70083595189717
H           0.25316270424275    0.25531273390531    1.50060383763788
H           0.14902126220610   -1.11249862863783    2.17863169669716
O          -1.60460009421677    0.46493629000947   -1.46276594025029
H          -0.64852662613104    0.40021288680773   -1.72164489666589
H          -2.06289661154670    0.82230807912257   -2.22457884410228
O          -1.08637018803591    1.28922383028317    1.10054558217198
H          -1.62803939982700    0.70176943680004    1.64896678232860
H          -1.35372943154108    1.09372663343506    0.18374010994721
O          -1.88840678427184   -1.17832591701333    2.17348404293374
H          -2.57269052867212   -1.63983067702674    2.65809013841394
H          -1.88895472562573   -1.56330767580442    1.26219991251639
N           1.52411368266288    2.25313295626486   -0.03434181289474
H           1.18646345568128    2.40919555818365   -0.97650968244271
H           2.07729146050315    3.04536555428846    0.26304677938263
H           0.72091877499395    2.16116774636757    0.57922791426150
