    26
        -50.45029865  Gyration_radius:  2.54933139986 Dipole_moment: 9.454
 S           0.36566724458367    0.65392945415528    2.36130218081095
O           0.77425433669585    1.51605515304972    1.22247877457710
O           0.50031585471404    1.29301982906478    3.62358219001259
O          -0.99754289105589    0.13524110873831    2.09237438022249
O           1.32781462095760   -0.58010804758439    2.26894548208614
H           0.75943556354590   -1.40232174412485    2.20497004977172
H          -1.57054937208544    0.85917026598001    0.90023224976337
O          -0.40513984741128   -2.44880106861927    1.88606544140486
H          -0.35754120900018   -2.47227766117686    0.91005182470046
H          -1.02295739208596   -1.73015069986936    2.09356930817684
O           1.13658813057196    0.55086796546029   -2.92518964759432
H           1.52439255533709   -0.13146620125029   -3.47671872783807
H           1.54977634720276    0.45055887939593   -2.04478442978689
O          -1.40837564287964    0.23226239688824   -2.30611868439943
H          -1.95561711813046    0.33584231263500   -3.08532166189707
H          -0.47053738026142    0.38585363197133   -2.59280527492142
O           1.95197749730228   -0.07108715082858   -0.43292478148430
H           1.55219410713233    0.57308331751248    0.21080897078099
H           2.66133348481655   -0.49300565044584    0.05628111720809
O          -0.12903467464511   -1.85017573961547   -0.75558087107765
H          -0.77518453195986   -1.32809448954454   -1.24332440897820
H           0.65428985066525   -1.27968332463471   -0.64855556542880
N          -1.48752579479643    1.55482351173280    0.07533620065414
H          -0.48844399444265    1.83441562857649    0.29710991747164
H          -2.13509875225680    2.33021224552804    0.15595458683375
H          -1.55449100248465    1.08183608696195   -0.84773865105326
