    26
        -50.44359068  Gyration_radius:  2.68297205947 Dipole_moment: 6.782
 S           2.30349733959341   -0.95002195176470    1.39913991080837
O           1.22769308811477   -0.44594539256575    2.22156738583477
O           3.01215319523368   -2.07490900697242    1.88873353480949
O           1.70054522084894   -1.27211896398771   -0.01318819057661
O           3.25356067050312    0.19431515716473    1.03132985785038
H           2.63085519499133    0.97082661863244    0.84896128172360
H           0.92538880881833   -1.88956877801985    0.03998844389526
O          -0.59557151124890    0.90952352232206   -0.73471299290281
H          -1.28498831257940    1.58973125504344   -0.90436767498248
H          -0.93890664957784    0.37360817753099    0.02272596483099
O           1.36389697165550    1.88421820549367    0.80851821226367
H           1.01877468643999    1.50076129512214    1.62548386859041
H           0.73356060406120    1.59530356758961    0.10649756275699
O          -0.24003328245237   -1.19556326883008   -2.34142036544654
H           0.71011255160452   -1.20300978669828   -2.47872920373513
H          -0.41634988680337   -0.35581144468831   -1.85705623734541
O          -1.29740483297842   -0.61109643482119    1.32520453012304
H          -1.32111662680926   -1.50537947649237    0.96510459222083
H          -0.45907278098868   -0.55487968230605    1.82150307490838
O          -0.42501484168733   -2.77766105669999   -0.26230277489915
H          -0.22693257594395   -3.68826656444456   -0.48742041120652
H          -0.52051892049820   -2.27828931590997   -1.12037853700120
N          -2.58717217322476    2.76638827825054   -0.98015699062213
H          -2.23076237396415    3.70339721372286   -0.83970123486258
H          -3.23806932026400    2.56297127118010   -0.23153142527936
H          -3.09812426289703    2.75147656209669   -1.85379218172485
