    26
        -50.44242771  Gyration_radius:  2.58748611669 Dipole_moment: 8.345
 S           0.06046137918253    2.37578251502205    0.47155756866187
O          -0.12110435577789    1.73933876623228   -0.81237261400487
O          -1.02489573719120    3.16990586118341    0.92291304185516
O           0.36411210412100    1.23401632186982    1.51459255597678
O           1.37275824664997    3.14686028292895    0.50946436556592
H           2.13156468730000    2.45275238050204    0.45793576863733
H          -0.41011272033959    0.61701297543973    1.54391459992855
O          -0.36906037960398   -2.59090538417880    0.46310868142059
H          -0.62400435501742   -3.49561274288869    0.64946489368478
H          -0.61111494743485   -2.42057923197883   -0.48224891110608
O          -1.58928635034235   -0.50993725935655    1.57493761744784
H          -1.79684305391375   -0.70506401649119    2.49064321605369
H          -1.12524539866898   -1.30259055096385    1.20473003465698
O          -2.31257048613590    0.24049320609394   -1.10456716133538
H          -2.46261858293300    0.10046482611513   -0.16296856403123
H          -1.59845494662942    0.90476120023223   -1.14782148333989
O          -1.15644248596624   -1.96803521530795   -1.97504886548355
H          -1.58211424981450   -1.10193846550179   -1.74116998814747
H          -1.78395605253076   -2.42634567464204   -2.53502968142543
O           3.08978700087198    1.29338362538610    0.53073530049113
H           3.00600196158350    1.00404947821698    1.44235928802982
H           2.64252219901980    0.57612045741123   -0.02738244158753
N           1.68474746142559   -0.46539114713710   -0.81229341042942
H           0.94794244453091    0.20645942556263   -1.02265218612501
H           1.27274793813822   -1.21096038269404   -0.26406037881399
H           1.99517866947852   -0.86404126099752   -1.68874123657109
