    26
        -50.45909899  Gyration_radius:  2.47777122944 Dipole_moment: 8.435
 S           2.10868172771341   -1.01045927335490   -0.82232349966350
O           1.30007262418454   -0.87210377538025    0.41366687877324
O           3.09721555716187   -2.02827720086040   -0.74115159296657
O           1.18795012527760   -1.14104001854681   -1.96663345392979
O           2.81892227813874    0.37905749163150   -1.00080949476143
H           2.08604318926064    1.02034923991259   -1.00909241894259
H          -0.20910308303619   -1.07184030524487   -1.72665081761949
O           0.91796432584206    1.34419897745629    1.77228594195474
H          -0.00195947900430    1.18828651833271    2.02994933480712
H           1.22141908763663    0.48368363761002    1.40547635008409
O          -1.73269277198890    1.44076046025534   -0.67418253426448
H          -1.81523343184785    1.26485405265705    0.27834028932396
H          -0.85173123364712    1.84065018167795   -0.79426019406483
O          -1.73843649561947    0.41819850398927    1.91112982046226
H          -1.46540703308091   -0.49268119681568    1.67006383081398
H          -2.42169661967378    0.34180745673398    2.57780282015851
O           0.88185591557750    2.24990657764160   -0.65271493559781
H           1.30557085753474    3.10338054675710   -0.75414345676666
H           0.92520705810841    2.02108920786399    0.32420751627517
O          -0.87692574176421   -2.00737010500599    1.04826660490855
H          -0.67430680275863   -2.79326099998379    1.55719756119251
H           0.01787791589160   -1.60918334440555    0.80505119036836
N          -1.29069182721287   -1.03759742952140   -1.48670995526647
H          -1.54020773935362   -0.03128075717015   -1.26153470752697
H          -1.41520039812407   -1.60729777003663   -0.63987329777429
H          -1.83518801523518   -1.39383067619610   -2.26335776996425
