    26
        -50.43887369  Gyration_radius:  2.72590873113 Dipole_moment: 7.314
 S           2.92398622181011    0.68918132214211    0.82321056933195
O           1.84735672122768    1.61216167142137    1.05670212876952
O           4.10652722953878    0.84865408969750    1.58051074679388
O           2.32818376364547   -0.76157785920859    1.00050512930494
O           3.26650275699585    0.66082414415632   -0.68741083341579
H           2.43950530027417    0.37435151225181   -1.15285371761151
H           1.69364247851692   -0.78743968169789    1.77758827347835
O           0.93339915180751   -0.33889585044901   -1.32515571658690
H           1.17932071992152   -0.88062323437397   -0.56387171566120
H           0.33546148381102    0.37237681973958   -0.97658230028474
O          -1.63502150101613   -1.54498917506793   -1.29032312339274
H          -0.71895381585149   -1.45452560985219   -1.58704235924026
H          -2.09538838597781   -0.76601951601168   -1.68880128005146
O           0.49976776731116   -0.99092671554656    2.79009267051882
H           0.49661019974409   -1.88040900707700    3.15023491409557
H          -0.31939232952335   -0.89402765820587    2.25845839249435
O          -0.54852516883177    1.45862545411963   -0.05107042469184
H           0.25827014733887    1.74703015314447    0.41896459883627
H          -1.00928711327841    0.86249738284039    0.56192852748979
O          -1.66281856054209   -0.77199855083753    1.19730250465100
H          -2.56274856622364   -0.85772564515844    1.51326408386060
H          -1.65401044360571   -1.15832280343312    0.27118696070556
N          -2.51140305520045    0.84697982000835   -2.21167588198112
H          -1.91624825575397    1.39159910662039   -1.59325059543883
H          -3.45888179862468    1.18817290634789   -2.11036311985899
H          -2.21585494762740    1.03502692436931   -3.16154844207623
