    26
        -50.44551453  Gyration_radius:  2.42084136499 Dipole_moment: 2.103
 S          -1.17955826891192    1.27925609232554   -1.04692980029110
O          -1.19234635181233    2.24527207616776    0.02443725636936
O          -1.67042979375901    1.68894616194516   -2.30880628401291
O           0.31007902596315    0.78975216134898   -1.18711068196569
O          -1.90262694652369    0.00131546121143   -0.61856694098677
H          -1.66197546825432   -0.30871061767399    0.33315878322484
H           0.86382438929557    1.58218399152426   -0.91601139474373
O           0.42402728738380    1.24702075019604    1.90881161503065
H          -0.07250230462704    0.56542786010098    2.37417694378030
H          -0.23155335223817    1.66966509018691    1.32119033179412
O           2.18522969897377   -0.46790358246787    0.67144371644313
H           1.66947290626950    0.16662699913631    1.20440731671266
H           2.02050420362807   -0.23362179763855   -0.24555380535250
O          -1.33040393664195   -0.91370957013712    1.66615708875517
H          -0.61761086653787   -1.59745823962481    1.37714052432674
H          -2.08593010007602   -1.42586055804818    1.95979069015391
O           1.43953942152136    2.88777729199560   -0.22747696409804
H           0.57141093428376    3.29353847610717   -0.09522915891368
H           1.73750721123489    2.60953485694311    0.64796196578850
O           0.43605776228038   -2.51303962231572    0.78705739386920
H           0.21588880871784   -2.53853974264009   -0.17353370956113
H           1.23535586189931   -1.94829738495272    0.84579271269600
N          -0.20720860952072   -2.12971013281511   -1.83545319932873
H           0.26126359178042   -2.57856095253105   -2.61289009066235
H          -0.01277958294321   -1.13523440486170   -1.88306079981997
H          -1.20523551138221   -2.23567068348882   -1.97090349921190
