    26
        -50.45264680  Gyration_radius:  2.44076861575 Dipole_moment: 4.151
 S           0.85674473091315    0.12742518526276   -1.78513608780352
O           1.19155981976295   -0.03874280364388   -0.38973810906903
O           1.24490584533717   -0.93659710781842   -2.64423825823541
O          -0.65190548262694    0.38388913446914   -1.89221139618051
O           1.49776577580455    1.44426235258954   -2.28642309284974
H           1.18430283657561    2.13743004426581   -1.65119706632346
H          -1.10550002996358    0.52944346285193   -0.95425710165507
O           0.17364115190999    1.80850037132419    2.05007303509014
H          -0.08763820193085    2.12282825563028    2.91719756810773
H           0.60711869238454    0.93734246973283    2.17705108167511
O          -1.34512230455764   -1.70198409965160    1.23744405300066
H          -1.08553516826960   -2.14265552937218    0.39180995649687
H          -0.52623164009444   -1.56975663975857    1.73108886884210
O          -1.70214664846998    0.71918807336871    0.35108291051032
H          -1.72844128536816   -0.22006396243405    0.69568782116577
H          -1.07470415514643    1.17179304642944    0.94505610681306
O           0.35948855858997    2.95830257350904   -0.49127820466741
H          -0.58217616236228    2.88424647968018   -0.67134593677264
H           0.49658987942124    2.61042155899309    0.40519708550860
O           1.19512221485090   -0.69429688556787    2.12505194597743
H           1.23722822627787   -0.56225944097489    1.15207706764495
H           2.07736291739254   -0.95329687643636    2.39560895729283
N          -0.60875549006015   -2.68325162116373   -1.18266750568098
H          -1.42029283581219   -2.54477362180392   -1.77379012118326
H          -0.34353050656896   -3.65817231321111   -1.26258415886963
H           0.14014926188544   -2.12922212614397   -1.58955941879163
