    26
        -50.46930064  Gyration_radius:  2.43426399878 Dipole_moment: 3.387
 S           0.23984587496181   -1.22879928847234   -0.13723528717170
O           1.03347977172253   -1.66560987877875    0.99088982591458
O           0.23094733065974   -2.35054199839925   -1.19366000782216
O          -1.14186439546471   -0.93840592819197    0.24392839134399
O           0.84442356200213   -0.03469463101448   -0.75989344421160
O          -1.86655129153071    1.58554475132724   -0.11373964947517
H          -1.64073891962022    0.63637311170123   -0.00091024117435
H          -2.79320975870838    1.65757389924837    0.11928985614975
O           2.92318892129441   -0.05098549072196    1.89621744159770
H           2.28204536557718   -0.74479550658124    1.61180157779778
H           3.69780981634202   -0.17776424210243    1.34638938662471
O          -0.70616375108186   -0.15007710491459    2.69929688221867
H          -1.05410953845589   -0.53465884366778    1.86321305017483
H          -0.07502407401304   -0.80336969378429    3.01543823120288
O          -0.75416829676782    1.04941252867511   -2.58745530326180
H          -0.00454577192762    0.73033743262751   -2.04779482263548
H          -1.33545438106555    1.46816133322478   -1.93259228237066
O          -1.39050029133095   -1.46546274253585   -2.99901579139059
H          -1.06297013877916   -1.70012399463071   -3.86992737661098
H          -0.44346369227498   -2.06983513724939   -1.88072288706533
H          -1.26589678136037   -0.48152289680165   -2.91221433616027
N           0.85508653531351    1.49920738572623    1.33739148850722
H           0.69072693303239    2.49815514613499    1.27514045985994
H           1.80258836771420    1.23274523784320    1.68656584749971
H           0.14842968512776    1.01349750306763    1.96364703524112
H           0.78608890858399    1.02563905825924    0.38595195510311
