    26
        -50.44347677  Gyration_radius:  2.46129936254 Dipole_moment: 4.922
 S          -0.08849470812628    1.18711967740203   -1.95886584205279
O          -0.54696324351264   -0.10688374828285   -1.48268263147786
O          -0.95890859764623    1.81935766784132   -2.88607984792056
O           0.09557323054635    2.10244593551361   -0.68881303026545
O           1.32900781741646    1.08487703360631   -2.45628901670471
H           1.85743638439292    0.67005781622980   -1.61564544665713
H          -0.64828158018706    2.01177024528595   -0.05591239045865
O          -0.16538837681138   -1.88068962624976    1.82055120849524
H           0.32491550440049   -1.06628941642703    1.98727443210005
H          -1.00055778204127   -1.60316766224904    1.42297721294217
O          -2.31001112966188   -0.69221883246977    0.31690226814011
H          -3.09225714001553   -1.03164625242368   -0.12078550723139
H          -1.63564139046403   -0.54566699813462   -0.39578698756994
O          -1.72439243589849    1.72325948385900    1.21083976416859
H          -2.05493420072111    0.81933213656883    0.99302314635932
H          -2.48378792496117    2.30838691417784    1.22610869497374
O           2.37449630270801    0.08650437822359   -0.45189801336332
H           1.87450828704863    0.42756525342337    0.30900999344405
H           2.08311249696995   -0.88241379958660   -0.53567963341212
O           0.90983278264252    0.79297462804096    1.87198757920706
H           0.04708383157444    1.21379306053202    1.75752124896530
H           1.44814597315516    1.39015007755954    2.39432010664619
N           1.28795168661123   -2.27660069403188   -0.65307012884084
H           0.87147966875145   -2.44219108085483    0.26331424604705
H           1.66177719496950   -3.14711674622602   -1.00486614510522
H           0.54429734886419   -1.96270944133283   -1.26745528042711
