    26
        -50.46695634  Gyration_radius:  2.38164403287 Dipole_moment: 6.770
 S          -1.62505002696052    0.29947462444109    0.47698319744619
O          -0.54803000479864    1.28191939390869    0.78263695830505
O          -2.89467446123389    0.90272528812455    0.24797578510851
O          -1.16593447381996   -0.55845455174391   -0.61815206693811
O          -1.71385727597704   -0.63329664199361    1.73834028218354
H          -0.86110223292289   -0.55072838723364    2.22730317062470
H          -0.60781518289363   -0.14035154955987   -2.28019738235419
O           0.70262725363732   -0.13282942240375    2.65984904734676
H           1.35743145979572   -0.60082391970016    2.11833399793780
H           0.46917913937248    0.67525641013419    2.17432825741454
O          -1.44140979698022    2.44861253822979   -1.52202368744269
H          -1.10749336566942    2.28576383482966   -0.62794797859285
H          -2.37417594944895    2.21993619910795   -1.45190990547544
O          -0.09457885048654   -2.70138533082445    0.37488730781414
H          -0.61377158382374   -2.86421496081224    1.16607887636008
H          -0.56416481263262   -1.96820537312196   -0.09374998751226
O           2.17706186308971   -1.46999526411916    0.66456038083253
H           1.34317718498156   -2.00880251012446    0.54090324923197
H           2.90185996995536   -2.09661351916921    0.65540792092168
O          -0.08109883719382    0.49219048480001   -2.80429714406056
H           1.00677353023517    0.61064587456474   -1.70693173315338
H          -0.55924518067600    1.33528880978409   -2.67086532184767
N           1.49734898130275    0.76119970486606   -0.75641509441030
H           1.90164348158681   -0.11912330819977   -0.38541098228694
H           0.70112877443406    1.03504701950919   -0.10267146899268
H           2.19417039714354    1.49676456668466   -0.80701565845321
