    26
        -50.44173863  Gyration_radius:  2.6176208618 Dipole_moment: 4.921
 S          -2.15397823272024   -0.88671303460880   -1.28570198299349
O          -2.37933545610521   -0.07432072700615   -0.10912239097930
O          -2.92890504823456   -0.56069330766033   -2.42683343817190
O          -0.63051747672496   -0.80493783447633   -1.63063576059517
O          -2.27800155381738   -2.37106534808440   -0.91991401489645
H          -1.82275855474565   -2.44058752659502   -0.02718623480530
H          -0.35427152760117    0.15092069967145   -1.77236942893865
O           1.77984866914358    1.71328109726099    2.73152215852941
H           1.07811342620898    2.08518142169544    2.18297439282944
H           1.57113388823402    1.93978295560425    3.63905957638292
O           0.00726100501459    1.68983903430039   -1.78329066101716
H          -0.71809029274064    2.16837013158105   -2.18954203872509
H          -0.08452196764970    1.80994155509611   -0.79696475422692
O          -0.44138966826632    1.53972857046736    0.78407013442631
H           0.12377880763946    0.75227446491569    0.97118561704471
H          -1.31711236460717    1.15414432576369    0.60723140198214
O          -1.19921083010087   -2.00386235310510    1.37626667118766
H          -0.27660234056105   -1.68862632584674    1.36979318738240
H          -1.74273824760665   -1.20363444777081    1.36268871105369
O           1.14243789652217   -0.57430879562309    1.27316887955607
H           1.64774567879255   -0.59001587307645    0.42019713619209
H           1.67562757553931   -0.07121568092224    1.90546715062799
N           2.29002561608551   -0.45220487138990   -1.15093743277456
H           1.66804730340783   -1.07764159203898   -1.65029143887076
H           3.24394815161067   -0.68810941099713   -1.39306323980772
H           2.09946555329713    0.48447288285435   -1.48777222039565
