    26
        -50.46930075  Gyration_radius:  2.43441422457 Dipole_moment: 3.383
 S           0.61393048063465   -0.13687266574721   -1.09077157295862
O           0.57233063583093    0.31292806818317   -2.56401488333448
O          -0.43708199492977   -1.13141965395358   -0.87871466737080
O           1.92949523237581   -0.66934690931085   -0.80945651144376
O           0.34990806659913    1.05042569562555   -0.25435286634123
O          -2.17468257640416   -0.49826369868174    1.01943611115941
H          -1.56800978425006   -0.74697424280502    0.28813971781970
H          -2.84416903262047   -1.18350939441146    1.04070048309604
O           3.21741800766215    0.22876224651250    1.31952421199049
H           3.64330278183753    1.05108899348850    1.07295561495247
H           2.84777896450538   -0.13785572631238    0.48144277557002
O           0.70697644279918   -2.49782229379697    1.03540632478525
H           1.61206663951046   -2.57470550344470    0.71917604154136
H           0.20267799205971   -2.18323732350388    0.25135598842989
O          -2.17905256009904    1.85181151742481   -0.43549501074238
H          -1.20981079434697    1.77556533370728   -0.33701368066628
H          -2.51587887530999    1.14985170393851    0.14419280136048
O          -1.88797615139891    1.01961893411730   -2.90948378355572
H          -0.38794785492542    0.53145868040628   -2.75318274967455
H          -2.13480281628427    1.33038803814615   -1.99634940473585
H          -1.92490261867993    1.79455686563203   -3.47422058890365
N           0.69803852245713   -0.05994110364712    2.06881894076650
H           0.14571632642030    0.20006620343447    2.87883697552297
H           0.60392600719517   -1.09071378414550    1.83160062731339
H           0.40098743569337    0.47536039556514    1.19736579164782
H           1.71976152366658    0.13877964357933    2.15410331377422
