    26
        -50.44765375  Gyration_radius:  2.49313443143 Dipole_moment: 4.971
 S          -0.24799358417990   -0.00354224160113   -1.82054670551984
O          -0.46047394644653   -0.87613446649954   -0.67313178373000
O          -0.64616983882100   -0.54830240920967   -3.06401540971372
O          -0.93158875318565    1.34610613831089   -1.50189730425651
O           1.22891286513322    0.39836414621825   -1.85699288608161
H           1.40118470826035    1.02975045626003   -1.06444575474852
H          -1.92764634590991    1.21364220929205   -1.37114007518890
O           2.29219961263336   -0.05261531768499    1.92913607011950
H           2.27371356333747   -0.79610298994827    1.26135499123917
H           3.16665234636159   -0.05280235020365    2.31996997404329
O          -3.39309280898582    0.96781471947540   -0.97072899136417
H          -3.33298440673659    0.24004794264637   -0.29667311694986
H          -3.76728492234921    1.72923756084291   -0.52144811671956
O          -2.83021213314506   -0.86730464343116    0.83416919444339
H          -2.30108316130515   -0.34679762449057    1.45788176481915
H          -2.17920385581924   -1.31591451675112    0.27731487473656
O          -0.52351884794019    0.55263307970939    1.59511671276791
H          -0.44374125525651    0.02632895327207    0.77632613860426
H           0.23053976621686    0.29659159051520    2.13748479533576
O           1.53208958178984    1.84661895359674    0.19376854132115
H           1.91968474513521    1.23729588211235    0.86505459707602
H           0.62149078593599    1.99027580467152    0.48708004433524
N           2.15055824997678   -1.86730935297189   -0.01485422872946
H           1.17818545415186   -1.71006006485435   -0.27649825099867
H           2.28015190587727   -2.86434765185408    0.10490530909949
H           2.70963029527770   -1.57347380742981   -0.80719037394142
