    26
        -50.46708041  Gyration_radius:  2.46958952757 Dipole_moment: 4.695
 S          -0.75711891046322   -0.84936159710820   -0.18944444198372
O           0.21017771706950   -1.54809748407576   -1.03295565523038
O          -1.06897082963709   -1.59894805103531    1.01958494403225
O           0.00469468956408    0.42469113541015    0.35651198336512
O          -1.91569233100653   -0.39380985737720   -0.91893169035011
O          -2.43377824000516    2.19316737838298   -1.14454827244435
H          -2.33616877722981    1.22940838939676   -0.98378394767419
H          -3.22530076662023    2.29656940933679   -1.67461027919715
O           0.62998394297888    1.06043578280856    2.93307030921129
H          -0.14619736792707    1.39402046475308    3.38643634831822
H           0.40874823152759    1.05417113735591    1.98376285877006
O           2.51735891288319   -1.29771690339708    0.12723091214571
H           2.78793422481919   -0.40946358705046   -0.11578266305713
H           1.70419169841291   -1.48387573322723   -0.40801632794999
O          -0.32704576275129   -0.14751607195098   -3.21095684157024
H          -0.02229455531948   -0.79049490481834   -2.53969192090792
H          -1.28599816790098   -0.19192690683524   -3.15358238583273
O           0.20687134941702    1.93255937191427   -1.64669807103996
H          -0.67704167638144    2.33822209709754   -1.56251010406428
H           0.13802926726507    1.06664018120461   -0.44070245274407
H           0.12203437239517    1.27132225951837   -2.37622429064751
N           1.11143960068602   -1.52752723711346    2.35131537343570
H           1.06107668143586   -0.60719470513108    2.83338035542648
H           1.82451725522130   -1.46945609849351    1.57065199293099
H           1.30885947489665   -2.29024248107791    2.98957531055520
H           0.15968995666098   -1.65557599850621    1.84691894650733
