    26
        -50.45131465  Gyration_radius:  2.45147876977 Dipole_moment: 5.738
 S          -1.22283492401584    1.30130787499338   -1.30208706583400
O          -0.79070347863469    1.75545875452213    0.00846563736165
O          -1.95105306908624    2.23050680311472   -2.08057054066353
O           0.04489036224934    0.82452101092284   -2.06589370291472
O          -2.04877571153724    0.02208856329194   -1.12158204303834
H          -1.46654717978859   -0.75264103662782   -0.72602575377870
H           0.86084899056091    0.85676208127343   -1.48627199882892
O           1.23885725956688    1.25665562431325    1.71721671621825
H           0.88256777533492    0.43944784279708    2.10251649851985
H           0.47336847634646    1.68522203865300    1.29938061280913
O          -2.41917743698569    0.53453924900800    1.72517941970022
H          -3.01564398659641    0.07556992541547    1.12786721712167
H          -1.90107724440680    1.13970018829431    1.15787803261844
O          -0.32110917763703   -0.91552173363315    2.41967635936316
H          -0.45760553722618   -1.43034400176338    3.21586220993911
H          -1.14361133160598   -0.37816779292125    2.28380606544721
O           2.22558375652142    0.91864864716827   -0.65719003146790
H           2.66375237697946    1.74561999703437   -0.86702277209888
H           1.93772205564311    0.99822872874649    0.30006003877214
O          -0.64029590233583   -1.79574043134437   -0.14727043923278
H           0.20858479185673   -1.85745980836610   -0.66719370443114
H          -0.40413512806310   -1.56002023910192    0.76951070436151
N           1.60260609665405   -1.82464470301836   -1.58773489835599
H           2.16648329456065   -1.05777911190246   -1.23692103110877
H           1.28858815086736   -1.56637884293063   -2.51508187927835
H           2.18871672076630   -2.64557961795672   -1.66657366118852
