    26
        -50.45418053  Gyration_radius:  2.46311513303 Dipole_moment: 2.501
 S           1.52553145368876   -0.06780109132267   -0.92779547537306
O           1.13833428774896    0.02438616811690    0.46502384670580
O           2.20794526849482   -1.25667975912272   -1.29751221001754
O           0.26091162101446    0.09970376285907   -1.79186237658611
O           2.39615093608795    1.14464239575367   -1.28550753442284
H           1.89315551441383    1.99987553733695   -1.08671551647656
H          -0.56339983205283    0.37463304125593   -1.25682169810478
O           1.10853669084528    3.26788631709779   -0.66136302190577
H           0.52450695398573    2.97361910442821    0.09077574516453
H           1.71040785826200    3.92326809368247   -0.30268510087152
O          -0.22489563943907   -0.89437894443577    2.64852259820077
H          -0.37215936336535   -0.04640036694681    3.07385476693509
H           0.42368402591813   -0.73228196610436    1.94508651746607
O          -1.85558355962643    0.67013952607283   -0.50636923268637
H          -1.95978667135709   -0.21843395474866    0.00520026050138
H          -2.57086614976422    0.69499431331316   -1.14435053032198
O          -0.29006360513558    2.12712157716979    1.23371461324880
H          -1.11751804804654    1.87869557700751    0.79857147586307
H           0.28268537086205    1.34279573201562    1.11636471129384
O          -1.97540422443721   -1.55787898151858    0.68972209402315
H          -1.36394898494874   -2.11666277395719    0.14543792584958
H          -1.49387646201611   -1.41934857275308    1.52938926396254
N          -0.12606704069793   -2.91313276259492   -0.73557521533102
H           0.17621948903833   -3.72673679892424   -0.21224066735936
H           0.69585057299179   -2.33332571881914   -0.88746477424295
H          -0.43035048246765   -3.23869944484213   -1.64540046550847
