    26
        -50.44614887  Gyration_radius:  2.50307179091 Dipole_moment: 4.647
 S           1.53477064136223   -1.21482926421280    1.19074856900133
O           0.33372867810930   -1.08995013292503    1.99086003629269
O           2.10336567666426   -2.51021133839815    1.11670373886781
O           1.22075557499599   -0.66257630535063   -0.22483579547062
O           2.56755461318848   -0.18471438959654    1.67490499864130
H           2.12806753979577    0.70078685801529    1.51370312125135
H           0.52923606488737   -1.22694461448049   -0.70320913879430
O          -0.73053448195822    1.61667298704979   -0.85067231867731
H           0.12104358587179    1.70254518014625   -0.40861937242811
H          -1.22018079009334    0.93968067930928   -0.34548585704902
O          -1.83668792542450   -0.49694773876626    0.51515880780448
H          -1.88785352373363   -1.15456012931518   -0.18472178027964
H          -1.11433055496944   -0.80076833374906    1.09539595184334
O          -0.77211298440288    1.25253315837679    2.73794405865465
H          -0.41867126826372    0.34433449946829    2.75698763146859
H          -1.58285250925158    1.19590114145953    2.22178403967019
O           1.26335677459950    2.00473815424869    1.28383178709826
H           1.68586188997782    2.79003406767581    1.63770928979596
H           0.45675318518859    1.83608946735517    1.84871095537747
O          -0.51180850565547   -2.00998468658015   -1.53569729694042
H          -0.05941100844153   -2.74171108474030   -1.95867151212368
H          -0.65429966452378   -1.28746237609867   -2.24385711136621
N          -0.77286801525640   -0.00375390816980   -3.17691085973105
H          -0.73738376181941    0.72041314646110   -2.44956184521292
H          -1.63898953732429    0.11593947421508   -3.68634322439110
H          -0.00650968351960    0.16474546860333   -3.81585688331179
