    26
        -50.44607697  Gyration_radius:  2.46939071642 Dipole_moment: 5.790
 S          -0.83831327483211    0.40961822620667   -1.87146219291506
O          -1.86687829459565    0.15672100931505   -0.88982819689121
O          -1.26417375162747    0.57029932862947   -3.21275949536769
O          -0.00569772111721    1.62828943280992   -1.38862337814366
O           0.19808165461769   -0.74156746795759   -1.76849415741268
H           1.12800995061604   -0.34875433213286   -1.61360235798701
H          -0.62169794420008    2.16417556057365   -0.76065122821346
O           2.41726243500213    0.35369304185711   -1.20518796999494
H           2.23637970602210    1.25219549068585   -1.49753718789446
H           2.29032289744224    0.36121514150620   -0.22539944233630
O          -0.61569122788113   -0.86922127677944    1.21921029937936
H          -0.44663204961610   -1.80108616739454    0.95380523541609
H          -1.14289818524141   -0.50641137445744    0.47787703781956
O          -1.65951786162986    2.64252739874336    0.20139931126403
H          -1.29696025710261    2.43440389732135    1.09884078142070
H          -2.30272611170330    1.94724292987445    0.01015388631150
O          -0.55349721686011    1.67064365413719    2.41798547918973
H           0.39478277197917    1.65514154075329    2.24149858091041
H          -0.84309138800067    0.75151003386939    2.33453976677836
O           1.75573096357648    0.25257922890108    1.36999827298221
H           0.87499777881665   -0.20656403642980    1.28871481811790
H           2.30718175584019   -0.31777545868635    1.90755010508023
N          -0.06681265573699   -3.20706504443602   -0.04933534185291
H           0.73746961800168   -3.81452129891462    0.04581607584721
H           0.06381554985951   -2.64495899803968   -0.88582295819524
H          -0.87944712165131   -3.79233044002019   -0.19868577328034
