    26
        -50.44625138  Gyration_radius:  2.71122584381 Dipole_moment: 8.117
 S           2.10789654961374    1.64408831443982    0.56662147741829
O           0.79313787667651    1.84859652507034   -0.05958494165527
O           2.44488639802854    2.62331270623918    1.54020091038680
O           1.99448148712783    0.20754673483018    1.28524867470455
O           3.11933588482692    1.36563052717870   -0.45770976602699
H           2.63074476367770    0.16383449032218   -0.99884988806230
H           1.29829491529557    0.27676618666891    1.94360052575488
O          -3.31658992681069    0.15174171966017    1.41738485255307
H          -3.22058839952802   -0.73844496963131    1.02130084311208
H          -3.79316721912044    0.02794147461804    2.23933988907820
O          -0.65233414706210    0.54717060625289    1.72487248840916
H          -0.33294972165743    1.25649763384040    1.13643367223548
H          -1.63175481502071    0.56345102747457    1.68699338333025
O          -0.07366353821534    0.68124872692670   -2.20034019789090
H          -0.56719687279887    1.30364034678535   -2.73526019711903
H           0.25592294079277    1.20289865610409   -1.41823157190671
O          -0.27677794613303   -1.26124447061963   -0.19255542344582
H          -0.51982278544888   -0.66956091059179   -0.92263578391771
H          -0.34269135425484   -0.69353937214464    0.61655661811790
O          -2.76753815186812   -2.27102761416720    0.29116364066470
H          -1.81674722528257   -2.09048288062269    0.14440104068050
H          -3.13311046175092   -2.53407268063215   -0.55446936161414
N           2.09954550171618   -0.72303241402142   -1.42952371960302
H           2.74882763837281   -1.42788492083786   -1.76139696507600
H           1.49811570898634   -0.35593453831848   -2.17986207610762
H           1.45374288976492   -1.09914091477083   -0.70369811401067
