    26
        -50.45004619  Gyration_radius:  2.5377956316 Dipole_moment: 6.015
 S          -1.54606717718986   -0.37864869155523    2.08039555807842
O          -0.76445296856298   -1.14848208544614    1.13742236949802
O          -2.23260833146391   -1.08712902556231    3.09196288059579
O          -0.61900630134264    0.68601014229885    2.72355157252629
O          -2.56834911642293    0.46812547366745    1.27633013011052
H          -2.17226001818456    0.76754013927941    0.40988447359184
H           0.21392899515271    0.84655211474725    2.19444538059885
O           1.57203624660976    1.25027152484224    1.46571276994226
H           1.37595872379438    1.47455371839306    0.50241687615916
H           1.90454513115859    2.05309870087285    1.87035962585242
O           1.88512835790868   -1.40956371385836    0.68039916725285
H           0.93579309451785   -1.51244325925887    0.87165703986597
H           2.12437480378355   -0.58252355916899    1.11866283980627
O           1.89125820279073   -0.72740757237161   -1.87054440321790
H           1.92135028222742   -1.06535678630790   -0.93570593069625
H           2.77597952796637   -0.83414833823146   -2.22167745420974
O           1.03087974620249    1.71465926014380   -1.01777305192946
H           0.06230439838786    1.67657562922813   -1.07099376647259
H           1.34905193471445    0.89697310060999   -1.45182585816159
O          -1.66897808839138    1.15907459649780   -1.05638070297454
H          -1.45333792086172    0.21263082152966   -1.40234748819315
H          -2.40930163043892    1.48769023799278   -1.56875894280805
N          -1.01572165258512   -1.24278478999392   -1.72309717429778
H          -1.56382958449246   -1.90613144940044   -2.25392313804400
H          -0.95936637997616   -1.56453734020860   -0.75858517206789
H          -0.06931029543884   -1.23459888886752   -2.09158757681963
