    26
        -50.44625091  Gyration_radius:  2.71179894347 Dipole_moment: 8.118
 S          -0.52008101729180   -2.02701567744368   -1.75578555087108
O          -1.25969778454783   -1.43550646046665   -0.63060036364620
O          -1.30593907667557   -2.23029941878806   -2.92254474187916
O           0.63924997441270   -0.95880147991860   -2.08354139143302
O           0.27441816342756   -3.17004628159747   -1.29536941540552
H           1.15274410392347   -2.54217744706615   -0.39435181077584
H           0.20403716386297   -0.14012134047801   -2.33536324828879
O          -0.46157440778250   -1.33208453731256    1.82854597495959
H          -0.83140454693656   -1.42035848682084    0.90759232061243
H          -1.19445707664941   -1.51102693028971    2.41846880876214
O          -0.91984983731742    1.09967394961222   -1.28152483688987
H          -1.38487966857773    1.81232424451551   -0.79481375002897
H          -1.35350194309765    0.26002946367655   -1.03993511950251
O           0.69884626472767    3.22231479708591    1.42769572076975
H           0.82298364932178    3.19632894300325    2.37732426661816
H           0.99170861400014    2.35539375608780    1.08027589218673
O          -1.77968057157721    3.13179296363079    0.29269991357267
H          -0.91918636640427    3.25349515668150    0.74361570986233
H          -1.95117056230806    3.94792495004846   -0.17919282081716
O           0.99963707732174    0.66693241375390    0.51180446546665
H           0.40432756224153    0.86539658796094   -0.25469018799106
H           0.42250117721069    0.23108852806309    1.15885572055295
N           1.72281828272611   -1.96577773442373    0.37778923640770
H           1.17613893386670   -2.04091163850037    1.24718259671913
H           1.70097814189897   -0.95872509873114    0.11295792546245
H           2.67103373085959   -2.30984324204709    0.48290469513481
