    26
        -50.44460698  Gyration_radius:  2.50470251833 Dipole_moment: 4.895
 S           0.34230288526944   -2.05854807941725    1.40207296266549
O           0.27457554616047   -2.35264996144274    0.00053601695164
O           1.12807933390927   -2.90558731689882    2.22250165827037
O           0.87087666084979   -0.56897578903057    1.53857342263175
O          -1.06782766104543   -1.91210771650677    1.99606157937120
H          -1.58198757211149   -1.28360786694643    1.39829202797498
H           1.39072269342033   -0.28974632366960    0.71154006058968
O           0.33013541412912    2.38772603707028   -0.43586711345441
H           1.11909578434880    1.82891163078215   -0.47315227548053
H           0.00982959002216    2.33791931425681    0.47654846206032
O          -0.61229897779828    1.62246567597981    2.09523507329578
H          -0.03208766401224    0.83776684042951    2.05372094783263
H          -0.69416389988426    1.86259916656602    3.01921118756693
O          -2.22415577491027   -0.09339930106312    0.61376267473661
H          -1.90162536007488    0.66704901345090    1.12347156945207
H          -1.96711192992060    0.08423164310995   -0.31417632373189
O          -1.46453005433727    0.96341950645177   -1.77666270405612
H          -0.78962967442710    1.55076359764859   -1.35166224377274
H          -2.13866598824163    1.54207315354111   -2.13547669664655
O           2.14895926586214    0.24547190716949   -0.51614579677409
H           1.62777544546999   -0.18065775376796   -1.30707704543908
H           3.02627539449715   -0.13979966143289   -0.52689760532585
N           0.74659794774070   -0.89010001307981   -2.34320453057450
H           1.06747790006664   -1.25186603686414   -3.23089585035147
H          -0.08884693694555   -0.33424604272899   -2.49711295863491
H           0.48022765196237   -1.66910562360823   -1.74319652915718
