    26
        -50.44669175  Gyration_radius:  2.46402718803 Dipole_moment: 1.840
 S          -1.41891253979342    1.00946558673630    1.45295852419954
O          -0.62700805264384    1.35641098644385    0.29032475114888
O          -2.58297186240676    1.79433519928478    1.64639003078542
O          -1.78342109858283   -0.50498366962554    1.34369952960234
O          -0.53161223169467    1.01665502950030    2.69424319355288
H           0.18631535033022    0.32580253985168    2.48571391182991
H          -1.90607761474399   -0.79531090483849    0.40473808348526
O           0.58560472776423   -2.05421970047901   -0.09024320389050
H           1.06729015947374   -1.59194642019949   -0.82330521694540
H          -0.33333920569364   -2.09653786540714   -0.36995212051762
O          -0.87316486174323    0.82054339591267   -2.25997567345166
H          -0.70980830926648    1.10744189949329   -1.33191050090721
H          -1.23817702783408    1.57947041585371   -2.71766814149952
O          -2.04947700829645   -1.29504746131046   -1.13951209984365
H          -2.95433718253126   -1.39867172802168   -1.43937521767531
H          -1.63333459680012   -0.59625724013937   -1.69315528707004
O           1.65888899350777   -0.53302593320163   -1.97415274106324
H           0.87938123246568   -0.09139135442561   -2.33163762178541
H           2.05663196986571    0.11067861285272   -1.34391833549267
O           1.15416978781554   -0.78529397097738    2.10909368485519
H           0.92367353992508   -1.24652140154467    1.24654006934382
H           1.10980903369431   -1.46718563847390    2.78272896119981
N           2.29304156806802    1.19965998266763    0.02437097469672
H           2.56073130546263    0.63266402941629    0.82026685061942
H           1.31953453423967    1.45672163535226    0.16676915988748
H           2.84656939943403    2.04654396528606    0.04696842492134
