    26
        -50.44460698  Gyration_radius:  2.50469797516 Dipole_moment: 4.894
 S          -1.67059095216981    0.94684190750248    1.62269445817102
O          -2.20610851468639    0.80843700841430    0.30002550601835
O          -2.56374038819659    0.83561771015108    2.71719585905273
O          -0.52541831945702   -0.14035744689419    1.77573374792854
O          -0.84867945731647    2.24005409327740    1.74435979585448
H          -0.21113545103890    2.26554969110059    0.96360318845681
H          -0.66193903890081   -0.90743050682274    1.12369159125828
O           2.13998599694064    0.29824177454414    1.65191338753216
H           2.58485764107001    0.47822543881962    2.48124388023127
H           1.19976155015169    0.13561664430877    1.86083324145157
O          -0.75171105934336   -2.08809374807448    0.14057052256188
H          -1.44835304379439   -2.67789381210482    0.43221015011703
H          -1.09248209354495   -1.63293176280915   -0.72862261987532
O           1.90202063971351   -1.44879122260812   -0.53246125897185
H           1.08047069060859   -1.89134631044891   -0.27688518041123
H           2.18143281027818   -0.93630999143644    0.24011465671497
O           1.06342355910639    0.42274367388596   -2.21807665228773
H           1.77177754628818    0.66455662546437   -2.81624712270964
H           1.40792378570855   -0.32254177886614   -1.66403759455743
O           0.93810230223668    2.10837286214225   -0.08475855977366
H           1.59600385671796    1.61068368427250    0.42668909154235
H           0.79460848800834    1.59015100692616   -0.90301735094523
N          -1.59419401354679   -0.79786026393350   -1.91364662152053
H          -0.79765548521465   -0.35849295159764   -2.36432770077204
H          -2.05313344636164   -0.08096485268960   -1.35396100925656
H          -2.23522760325819   -1.12207747252393   -2.62483741581021
