    26
        -50.45267326  Gyration_radius:  2.5776905936 Dipole_moment: 4.147
 S           1.40930913571745    0.15850756630487   -0.92006611656346
O           0.15566025464433   -0.31434466583798   -1.46194978994368
O           1.37468414695151    1.51124169326696   -0.44435057977997
O           1.86734860606572   -0.80183631384018    0.17584219042546
O           2.51203720215977    0.01751219794708   -1.97618169679137
H           2.40721471611432   -0.95040452364030   -2.28529465451722
H           1.18486848684331   -0.85562005682215    0.99146548538614
O          -0.81211821078629    1.40061320624930    2.79727744939753
H          -0.76301868069917    2.00876727703257    2.03774785733412
H          -1.67960797170320    0.98760591911090    2.74748780480040
O          -0.67206945405450    2.87845259658393    0.48487401415467
H          -0.46417313367684    3.81390023606530    0.46007512816714
H           0.11653666952445    2.41225663121612    0.12816140343789
O          -2.32972307093145   -0.88220349615020    1.30629295528419
H          -2.87150240408390   -1.61620547804100    1.01624186537107
H          -2.34128864700843   -0.22341816310740    0.56391380964869
O           0.23852932002040   -0.91609817842424    2.04280901493935
H          -0.66739538164106   -1.11043569994856    1.71164236679829
H           0.12530590524899   -0.02652834473853    2.45326521550957
O          -2.16689625531698    0.83183341736494   -0.68827651356632
H          -1.85453187981072    1.67746959889148   -0.33498039664640
H          -1.38825251069870    0.42492853327453   -1.10961673174619
N           1.80975454038166   -2.40242924749189   -2.44506569140910
H           0.86009359313114   -2.09957862140379   -2.24972023631445
H           2.11999765772525   -2.99990429449703   -1.69029069453374
H           1.82923738588356   -2.92408178936468   -3.31130342884223
