    26
        -50.45793228  Gyration_radius:  2.46114284537 Dipole_moment: 5.057
 S           0.87614339801461    0.49704983004927    0.09466786948645
O           0.91331294826995   -0.24207081522235   -1.15134666278069
O          -0.43809910455453    0.33325305798683    0.76082949287217
O           1.95715627050674    0.21415416501731    1.00278436921803
O           0.92322542426228    2.01136391525997   -0.31979674923877
O          -2.21118015151856   -2.27087941840615   -1.10257456728803
H          -1.54820360322544   -2.42463341666394   -0.36015502081632
H          -3.01688413513285   -2.71875822031562   -0.83749227816068
O           1.97827005832922   -2.40034710081686    0.22084258257397
H           1.83071367707380   -2.11320570028687   -0.68720844953921
H           2.20024810600374   -1.58067289712159    0.69089065878832
O          -0.61443480956441   -2.37807147179011    0.92898749204824
H           0.31256625942436   -2.62812105929837    0.72544378732778
H          -0.57631620583052   -1.42264422805214    1.10178561336042
O          -0.63380898974482    1.17558645494296   -2.66610499495116
H           0.05932926818605    0.58282902253577   -2.28317167267595
H          -0.35110681134165    2.06420890282705   -2.43305409484824
O          -2.23953188691074    0.23993500408900   -0.94061474407480
H          -2.29561761882528   -0.79786034241749   -1.09153689583617
H          -1.53454802268065    0.32658894902248   -0.15550991917317
H          -1.73373978441240    0.63741526541998   -1.74605699410629
N           1.22948752990624    2.67372375405338    2.17123252356935
H           0.36787123589814    2.61027939469222    2.69779118411104
H           1.03079994017723    2.48523648697339    0.55826141969937
H           1.82728665670765    3.36029837573268    2.61311110086380
H           1.68706034094946    1.76534210183208    2.20799493953635
