    26
        -50.45239903  Gyration_radius:  2.48621446031 Dipole_moment: 2.087
 S          -1.11313671417158    1.36875241629523   -0.41145373901559
O          -1.71349202893026    0.40651584887708    0.49122295749342
O          -0.62445696132733    2.55924503189340    0.19326577041805
O           0.02795605333286    0.65380408075189   -1.16800685112267
O          -2.10050829210352    1.70258649179703   -1.53295627671915
H          -2.48968153602567    0.80125788495107   -1.77818088868318
H           0.38011690698725   -0.18875383758775   -0.68058509806600
O           0.96192158157441   -1.39224760805065   -0.02426142878651
H           1.88860487082492   -1.03377434205697    0.05675410728472
H           0.59523671506614   -1.36233028889685    0.88438223189218
O          -0.54860320283147   -2.05531515741870   -2.29636419977086
H          -0.05876913983987   -1.50546399228972   -2.91146889722229
H          -0.01029599593432   -2.10294324784775   -1.49232969993195
O          -0.30429525707311   -0.89171737845077    2.30280881351533
H          -0.85587383847245   -1.51559888871109    2.77808603458553
H          -0.90623874457605   -0.35457089407356    1.74403522294305
O           3.13092310898264    0.02908951429498    0.21011351254877
H           2.65919228879249    0.62430272219345    0.85965409667524
H           3.26178147452101    0.55462918601241   -0.58072860679280
O          -2.82768046899637   -0.72667119628483   -1.70813122270377
H          -2.77064066981055   -0.74004273761354   -0.74361238056809
H          -2.08663951871812   -1.28869137033328   -2.02628364489912
N           1.57392155676889    1.49364632853206    1.80096717700253
H           1.06632635302325    0.81131597765098    2.35456520718836
H           0.88687377649495    1.98860765331519    1.23513050219386
H           1.97745768250306    2.16436781310386    2.44337728052484
