    26
        -50.44296172  Gyration_radius:  2.53003703961 Dipole_moment: 4.165
 S           0.74180463784993   -1.54927147952535   -1.45603656986637
O          -0.55094405983301   -0.93419131616515   -1.66341236198825
O           1.36239064319462   -2.11270781086022   -2.59858627308673
O           1.68101143771682   -0.46191328526092   -0.82412441866812
O           0.64544185590221   -2.54645861345973   -0.30252515626335
H          -0.15436091910237   -2.23819553595523    0.26875146891712
H           1.70738836828151    0.32064959227135   -1.44828818537742
O          -1.36152302329897   -1.61356213526419    0.90407071468745
H          -1.06864070944290   -0.74430507144761    1.29149099997902
H          -1.87375454756377   -1.39081420912474    0.11914669466940
O          -3.03154380847352    1.49537152319229    0.76260657367105
H          -2.33990217660736    1.23242615416029    1.38599266138408
H          -3.63920511485927    2.05823393292612    1.24342262070188
O          -0.82564198698104    1.59078946753856   -0.93193573835546
H          -1.72896191551187    1.77711851227781   -0.63549568762773
H          -0.83779855309961    0.65849459294501   -1.23337210866652
O           1.38254138281356    1.49866390659384   -2.47269434580046
H           1.06540831164008    1.09905997901572   -3.28638843524496
H           0.60234350188493    1.85451984692079   -2.00814612131842
O          -0.45891096128410    0.74206573945291    1.67863469315174
H          -0.31253446088829    1.16731674128323    0.81396722042980
H           0.42723999019050    0.42868137535666    1.98267289127690
N           1.92041345706469   -0.42747412260764    2.14141932273023
H           1.78904577638582   -1.35603483222987    2.52326234768655
H           2.72747940934053   -0.01543620918444    2.59217275726891
H           2.13121346633836   -0.53302673332281    1.15339441597886
