    26
        -50.44623313  Gyration_radius:  2.48570182673 Dipole_moment: 6.370
 S          -2.19323067679750    0.33920484994749    1.16733470790113
O          -1.09810442445418    0.61862207602182    2.06306366846158
O          -3.35783115047498    1.13211521010397    1.30525788162738
O          -1.62958761490883    0.45445373021696   -0.29918399291371
O          -2.54375528392307   -1.14937534886480    1.21896503776492
H          -1.65921518744264   -1.64818856579222    1.11851871696964
H          -0.89090562287391    1.16461642184745   -0.38341598793930
O          -0.32980324041091   -2.28130343800655    0.73061268224648
H          -0.36885090104811   -2.30454089709389   -0.23989503988504
H           0.46187816423614   -1.73847687382189    0.94232595116997
O           1.22204293709846    1.77276708014250    1.96914747730519
H           0.33914680021053    1.35683280759853    2.11766939187713
H           1.36251033476609    2.37504048196775    2.70087165552280
O           1.81967343205227   -0.67227972212237    0.80164504907776
H           1.84439402826335   -0.34437107579477   -0.10470151798568
H           1.76725280483822    0.10700168298353    1.37353846606184
O          -0.81721831391725   -1.57956959277674   -1.91018068224879
H          -1.54016891454277   -2.02468205521907   -2.35548873681003
H          -1.20974943575764   -0.82653459584528   -1.42871278076362
O           0.34294655551968    2.00809765115296   -0.57821492003144
H           0.91887906571278    1.42148989052581   -1.11009869536002
H           0.75464477286496    2.08676409346411    0.30428646173873
N           1.67364895625582    0.09119895645095   -2.11393606331489
H           1.64094022422222    0.65191623567351   -2.95857552645128
H           0.93351523036531   -0.60348959082973   -2.19726216071149
H           2.55694743014008   -0.40730943194025   -2.13357102333437
