    26
        -50.44340499  Gyration_radius:  2.5838568195 Dipole_moment: 7.848
 S           0.62065586358341    0.26848106165155   -2.47615000804997
O           1.31728982723183   -0.29440858277844   -1.32970272896706
O           0.88693234878607   -0.35870808359631   -3.71825150987686
O          -0.91000354697379    0.21593374232484   -2.12101667965326
O           0.86518258620736    1.76577711898536   -2.54798182911136
H           0.48958172476336    2.22141138189038   -1.64813637874353
H          -1.06017656953514   -0.72424495791056   -1.83047925407494
O          -1.26988961804522    0.75107905582339    1.64995737065547
H          -1.35145680108353    1.02130122438556    2.56629445483992
H          -0.28962746990693    0.74497069639861    1.45355912002300
O          -0.64508625484752   -2.16381093056591   -1.16159802910628
H           0.27794910903208   -1.87107568366222   -1.16332295868822
H          -0.93450274652788   -2.15695339311797   -0.22824387941272
O           1.31650093469044   -1.90201962125813    2.11955410430827
H           0.36859031467982   -2.05802645193247    1.98412113778799
H           1.77814396772641   -2.44456201826578    1.47756368946452
O           1.29448159395066    0.64126995618180    1.14620623326422
H           1.50291247468681   -0.16358512880954    1.65931779530622
H           1.38272291387104    0.35403905424830    0.21100930513828
O          -1.40179469761020   -1.89477766559871    1.45146661608883
H          -2.26635731297304   -2.23988411903516    1.67728531156167
H          -1.46209947964056   -0.90800565209327    1.49135245840780
N          -0.03855819977008    2.73298131488419   -0.39270122832493
H           0.64500319995603    2.51195152094641    0.32314001673760
H          -0.89273899950144    2.22432450207415   -0.19372214757668
H          -0.22365517272266    3.72654165885659   -0.39952096201581
