    26
        -50.45186883  Gyration_radius:  2.44386269442 Dipole_moment: 5.069
 S          -2.01654929380577   -0.37930604747344   -0.00764560047670
O          -1.18600311281532   -0.22032409779404    1.16245286184360
O          -3.33663245626890    0.13196427989004    0.10122421302014
O          -1.29603244372584    0.28709293040802   -1.21835981997774
O          -2.01174365305502   -1.85713188494699   -0.42051070099369
H          -1.04581468517829   -2.14519359318714   -0.50079667325805
H          -1.50484154614657    1.29126896333417   -1.11073690634112
O          -0.00733471004743    2.20258726633202    1.21309580684390
H           0.84817487193516    1.96350645095666    0.80989875023049
H          -0.42813471031446    1.34944334778028    1.41627162192569
O           2.26085898680934    1.18729870346519   -0.00552476501207
H           2.88250368290769    1.82486488020240   -0.35933089420617
H           1.94145707739295    0.65857168306192   -0.77579653715638
O           0.45996961775415   -2.56880534779172   -0.55280226399167
H           0.89297816155133   -2.11298018102804    0.26162575625526
H           0.51398069859195   -3.51494868351509   -0.40616934754035
O          -1.84878415740236    2.64086802156983   -0.57883286173980
H          -2.68607357352579    2.47352681346369   -0.13493081087319
H          -1.14463949566978    2.69328123986777    0.12759639714340
O           1.28967314986743   -0.30022308267409   -2.00357443366863
H           1.24005219003880   -1.22005967172532   -1.71229675803018
H           0.37265670001203    0.00839941271324   -1.98958102166949
N           1.42743996944081   -1.29014098943684    1.47862925953060
H           1.84726811845083   -1.69399437023246    2.30552331127587
H           0.52571342926952   -0.89136777947024    1.73233281208855
H           2.00985719392835   -0.51819828377597    1.16823862477606
