    26
        -50.45100446  Gyration_radius:  2.52510527097 Dipole_moment: 1.946
 S          -0.39230802578862   -0.62348854045539    1.42116513253220
O          -1.09660026972519   -0.60952585752061    0.16101762878644
O           0.11319486164926   -1.90878694559171    1.79049482747708
O           0.76138383826297    0.41265596404787    1.35975454887518
O          -1.26416331319594   -0.05264871109726    2.52490273149574
H          -1.31630356589721    0.95868440003936    2.34553017628886
H           1.41609405848394    0.17689682986142    0.62050155328958
O          -1.16448964124462    2.41536150394190    2.04082869089013
H          -0.24736233505162    2.60322975595048    2.25567470993497
H          -1.26301064094753    2.65770581986705    1.07707640495664
O           1.59928983771410   -2.74624720077110   -0.30841685392309
H           1.16388654947583   -2.66637760362855    0.55876457158063
H           0.86352348511533   -2.85813177286024   -0.94323516899565
O          -1.30083019840363    3.05320025196058   -0.49807492302674
H          -2.19066369151296    2.96336147557812   -0.84285369159945
H          -0.73707630129374    2.41951434631296   -1.02309698555060
O           2.39558919765378   -0.30300934820814   -0.46070722026381
H           2.14913635016747   -1.28059682519879   -0.50938463210164
H           3.29688914000138   -0.27464285424279   -0.13249525649961
O          -0.79778336178987   -2.66470721407447   -1.55864048355462
H          -1.00410429996745   -1.90059623114498   -0.98761164123217
H          -1.40935873440118   -3.35869951808078   -1.30686265298202
N           0.01590510419610    1.15328718320634   -1.82727571052863
H          -0.43382806140735    0.42735444208279   -1.27330316899780
H           1.01357475714896    1.05311366152313   -1.68170218806237
H          -0.17058469938664    0.95309296854737   -2.80205038880568
