    26
        -50.45007770  Gyration_radius:  2.54487103894 Dipole_moment: 8.991
 S           0.76784499788723   -2.23251934076814   -0.80804409244632
O           1.30119078950712   -1.60850085844312    0.40527900919008
O           0.48593208374074   -3.61925233793991   -0.69367372374565
O          -0.59851101066799   -1.43940074528275   -1.08763227776802
O           1.60062501569226   -1.85874926559561   -1.97020782842190
H           1.95993067589770   -0.58051753936725   -1.85235868423769
H          -1.09139463806542   -1.62540232126039   -0.24625227226951
O          -1.42230493172622    0.77366740662329    2.36602800004170
H          -1.88172709801151    1.26153251868051    1.64527655286983
H          -2.00484997076002    0.79984586618271    3.12635767575751
O          -2.48173795254193    2.13647180257895    0.30316147693052
H          -1.83834320078883    1.87917466145650   -0.38899055546220
H          -2.52626605499889    3.09355596988362    0.29255044570339
O          -0.36232299780258    1.26448305248060   -1.15788042898177
H          -0.62528774256515    0.33680146388316   -1.30638994114200
H           0.09450954552688    1.24896875625967   -0.27330105848615
O          -1.24525701955241   -1.80076297439823    1.38199641215565
H          -0.31545344021290   -2.05715047074982    1.45022494848059
H          -1.31748735375474   -0.91356350537242    1.78545731343703
O           1.04479426349297    0.90429289720070    1.02688031306832
H           1.20028182272470   -0.06089589215982    0.87203961571247
H           0.41069134166188    0.94388634638606    1.75448509970251
N           2.18745709258822    0.55333910993801   -1.70370568896232
H           1.26379533234442    1.03286925250317   -1.75830864163353
H           2.83988410148224    0.89269959865206   -2.40149688264826
H           2.55400633893593    0.67512653869706   -0.76149477687577
