    26
        -50.45100480  Gyration_radius:  2.52560435782 Dipole_moment: 1.952
 S          -0.19474447706715    1.36535878624804    0.81588931876170
O          -1.12062927885486    0.59183045037354    0.02309624721895
O          -0.45037294295904    1.31555424999978    2.22163295607843
O           1.24828553789196    0.88135462577486    0.51275135358698
O          -0.14869612257852    2.80255541811499    0.32936688552838
H           0.34331511984112    2.77653009149592   -0.57309220239235
H           1.35500742104889   -0.09896046509256    0.75351122463757
O           0.67742295698925    0.48895525446718   -3.25039316832295
H          -0.13945171120218    0.59023889940837   -3.74153146388431
H           0.54445225290971   -0.30040928467663   -2.65501924573446
O          -0.52051041165476   -1.31077867415651    2.86595430943562
H          -1.33904766001246   -1.53444697189531    2.37906648699242
H          -0.51450625312378   -0.33783221148148    2.89972309445478
O           1.44865009324486   -1.55790753644870    1.22614685461978
H           0.67895179986444   -1.58875242214622    1.87828004763465
H           2.24236050874972   -1.68990275408606    1.74907675113368
O           1.20770467655615    2.59444973331842   -1.78111394858099
H           0.97056758034189    1.81589339005371   -2.35971551663847
H           2.07238977062720    2.38515577646927   -1.41903704679132
O          -2.65913352586937   -1.27684364196778    1.21092650141204
H          -3.43778012472337   -0.84429148826896    1.56535966307892
H          -2.17974049322927   -0.59748216348330    0.69987518196494
N           0.08583613476567   -1.48843473114082   -1.56270733578411
H           0.81140326346951   -1.84097490008986   -0.94963379421748
H          -0.48966277594132   -2.27514488580121   -1.83642081093221
H          -0.49207133903195   -0.86571452527631   -1.00199235319442
