    26
        -50.44245907  Gyration_radius:  2.56269427434 Dipole_moment: 7.921
 S          -0.51578745153123    0.21999295968359   -2.67472064657616
O          -1.55059172018382    0.62611826447507   -1.74623238015888
O          -0.54040072567208    0.83885471257124   -3.94675236285721
O           0.85102795864486    0.44927884953368   -1.94668218822321
O          -0.52826857294925   -1.31031832945830   -2.83036636893110
H          -0.35962262764949   -1.69755344666047   -1.92142328515838
H           0.76655367775836    1.37644462085877   -1.55854924044290
O          -1.57061355179647   -0.14538701743841    0.79986820866413
H          -1.05596223283222    0.58610776183725    1.18099849442666
H          -1.77801100766078    0.14948536457694   -0.10985216014462
O           0.12415909896352    2.66353885295691   -0.91365419364395
H          -0.77383052747864    2.44452293839827   -1.19293015332840
H           0.16471046041357    2.47027390469518    0.04866587051655
O          -0.26627553352802   -1.94967083948572    2.55939630816611
H          -0.53348851907672   -2.00822620437197    3.47725075078616
H          -0.89976647355843   -1.36251779393079    2.12284256406443
O           0.27113520308208    1.74787709471836    1.61072833419911
H           0.59980932347089    2.24695898384092    2.35889244321320
H           0.94564603521800    1.01558858100581    1.41803970468696
O          -0.11788051827932   -2.06288332692743   -0.41598716591708
H          -0.37618985572484   -2.92129593111173   -0.07323782313496
H          -0.62903653789894   -1.39440067863898    0.09671899144525
N           1.83507828713611   -0.26108239890976    1.00298839510714
H           2.83097115028534   -0.27987712501796    1.18029516654633
H           1.69245521738467   -0.38151344412932    0.00474528485507
H           1.41417943346862   -1.06031635308173    1.46895745183631
