    26
        -50.45192206  Gyration_radius:  2.49117345588 Dipole_moment: 5.224
 S          -0.97966749105980    1.40790857422591   -1.63733937183622
O          -1.30953090207269    1.98548367167286   -0.34699241790587
O          -1.02551244250306    2.28517430260195   -2.74678192851347
O           0.43227185915281    0.76498592627877   -1.48872967065376
O          -1.86513260450304    0.18630095181335   -1.90408446102006
H          -1.83389772249534   -0.46102388402744   -1.11506727249581
H           0.89964722034908    1.27770190840627   -0.72492778268219
O           0.75637253896416    0.22256160076827    2.26867673973158
H          -0.19806017228265    0.37666301719642    2.34710628999364
H           0.85020411814467   -0.63051749630652    1.81265671590396
O          -1.94207558311328    0.73795189892188    1.85011997081601
H          -1.73632335232284    1.27197532614037    1.04332528293218
H          -2.68848247140881    1.16356112970270    2.27376349146368
O          -1.75246642772586   -1.34558138411890    0.12258985844686
H          -0.84392542080825   -1.66839117399050    0.29117012558459
H          -1.95840368533944   -0.74295260928419    0.86033565756091
O           1.33182265971060    2.04684227230421    0.47023310461197
H           0.55958320360553    2.62043504402460    0.53536189988358
H           1.24421546606927    1.39065248486039    1.21686673981148
O           0.78357770672209   -2.08861032282861    0.74394600905879
H           0.97737997110108   -2.97978864345035    1.03725459260207
H           1.33055118509813   -1.92384632014603   -0.07835041207752
N           2.14571870183922   -1.58874030441617   -1.47797846789993
H           3.10865771879990   -1.29770660369711   -1.36371937673645
H           1.60777655732688   -0.76638530898304   -1.74132462027888
H           2.10569937875915   -2.24465404766117   -2.24811069630510
