    26
        -50.45754978  Gyration_radius:  2.46069374593 Dipole_moment: 7.148
 S          -0.91714943790708   -1.92802040703694    0.80949749703099
O          -0.01393998572145   -1.72040850737182   -0.35993855523948
O          -1.02622131247595   -3.29483320862299    1.18447900360453
O          -0.43975067203274   -1.05462400408874    1.90655046875338
O          -2.30736715912578   -1.40121409129417    0.36985823135409
H          -2.19851780016359   -0.46546635486559    0.04997643719782
H           1.27001048223968   -0.83667485480042    1.73359589680560
O          -1.91695520876059    1.08191634405880   -0.33702740149137
H          -1.56625539724522    1.43755688252854    0.49739370620125
H          -1.20649547027806    1.19931528372604   -0.99149775875304
O           1.63489241209536    1.82544319101651    0.35076220580453
H           1.23308122301194    1.81116210647781   -0.53532941085785
H           0.89529082352231    1.95576368194584    0.97036662626116
O          -0.55800325491268    1.51756386875126    1.97761554208473
H          -0.54972621043293    0.51876552499885    1.98952941840322
H          -0.91233422162829    1.78980450174370    2.82460634716947
O           0.25507300031817    1.50494301285143   -2.01940372621885
H           0.05699121492078    2.11016969407916   -2.73537893572427
H           0.18779811132582    0.59458071368291   -2.39674549215114
O          -0.12569013350890   -0.96573682380566   -2.85811563359173
H          -0.21684513299641   -1.32548908145743   -1.94585366506254
H           0.43531418835396   -1.58296113670913   -3.32958988567845
N           1.91354268972547   -0.72194006809056    0.92241707068288
H           2.81332640735788   -1.16924396110505    1.05027109958916
H           1.97847162069147    0.31599376209813    0.68658894638844
H           1.28145922356439   -1.19636605872973    0.18537197732486
