    26
        -50.45192262  Gyration_radius:  2.49122185539 Dipole_moment: 5.220
 S          -0.85935695528972    1.48227688290999   -1.63657972236969
O          -1.17851793880325    2.06170861773859   -0.34444774509690
O          -0.83915268616838    2.37331419512232   -2.73572934769616
O           0.51287740152447    0.76132405522416   -1.47382353870370
O          -1.80545646083631    0.31395946066210   -1.93287865415515
H          -1.83189327032045   -0.33908630356001   -1.14837418543433
H           0.99397693666491    1.23678641354625   -0.69475863197235
O           0.73290661195813    0.15443880739429    2.28212590353964
H          -0.21162119133436    0.36473467441445    2.34842835540734
H           0.78233754170502   -0.69792017071183    1.81790520703264
O          -1.92334599253506    0.83583470378371    1.82973453216285
H          -1.67190811815338    1.36359675298300    1.03193247608815
H          -2.65003132988975    1.30187469065820    2.24502998705982
O          -1.83223663917245   -1.23760982119545    0.08186091583621
H          -2.01362958494737   -0.63040013140575    0.82227239250453
H          -0.94886992163202   -1.61823984757435    0.26314840582251
O           1.44714705427402    1.96421722614936    0.51885277381864
H           1.30802486856736    1.30457264067826    1.25445552157347
H           0.70874299340648    2.58109438700582    0.57865745823760
O           0.64286981370581   -2.14048265911409    0.73471534995912
H           0.77923460917338   -3.04392772888266    1.02274020258133
H           1.20824386900558   -2.00277058446449   -0.08023245642570
N           2.05655914368048   -1.70715546824179   -1.46842330858650
H           1.58208511521144   -0.84436369360177   -1.72440246578791
H           1.97357461518633   -2.34870844840037   -2.24712377572544
H           3.03743949501938   -1.48906868111620   -1.34508564967186
