    26
        -50.44549888  Gyration_radius:  2.58445552285 Dipole_moment: 5.802
 S          -1.09315564986875    2.27878960102571   -0.45503070667736
O          -1.42168895537365    1.40537911783075    0.65165411808765
O          -1.48075700462669    3.63312856088995   -0.33736625491653
O           0.43769299719120    2.13504154394215   -0.70559094096855
O          -1.68069089107439    1.69345442843831   -1.75803483332817
H          -1.38666196124231    0.74333508620746   -1.88100854055405
H           0.83935386805454    1.90679030335155    0.20895773575567
O           1.37950146502829   -1.20231794674982    1.04673698610299
H           0.43557702537208   -1.28276877796145    0.77877246416485
H           1.42474068930487   -1.70213352386489    1.86928213229774
O          -1.26720930412957   -1.23481925438267    0.50922553526874
H          -1.34167667575743   -1.36753311415943   -0.44433655271586
H          -1.43660550331532   -0.27873115455695    0.64507426406281
O          -0.84925069965911   -0.72516229750374   -2.17952677551111
H           0.15959370031926   -0.62865956085165   -2.05699262055174
H          -1.00254575891942   -0.91439135291054   -3.10677873822145
O           1.14189768649842    1.38870576704170    1.59492195716608
H           1.36033025680626    0.43254668635431    1.45156412278309
H           0.22484841521944    1.40362737806975    1.89794285121648
O          -0.35034428799388   -2.27815932565224    2.99585339504720
H          -0.89345308872668   -2.05968710516810    2.22571679329423
H          -0.94377183987671   -2.32143124976061    3.74604962535681
N           1.69615830101519   -0.34072576391919   -1.76736120671177
H           1.91306210351796   -0.75419918131086   -0.86486906686365
H           1.70679807289432    0.66701335015787   -1.64806507561225
H           2.42825704932340   -0.59709223456992   -2.41679066797705
