    26
        -50.44571047  Gyration_radius:  2.55909473322 Dipole_moment: 6.167
 S          -0.90239803324947   -0.27806813056937    2.12818175293745
O           0.52202429590185   -0.49807177705565    2.06679349936538
O          -1.57060224963174   -0.60801123023864    3.32865653665065
O          -1.13748740470273    1.23075426983355    1.77080753079451
O          -1.57626897286893   -1.01425097252586    0.95053600764272
H          -1.24593808666336   -0.60194012240057    0.06580816561056
H          -0.27778210641648    1.61231494629878    1.45014632182650
O          -0.68243746599804   -0.02511808017934   -1.19350860915591
H           0.28607107597226   -0.03761585929515   -0.98666792663426
H          -0.94811120360419    0.93316380549602   -1.20266575194548
O           1.76673443559542   -0.20292698477520   -0.23120713470157
H           1.44166312250066   -0.46306438706566    0.65827413126994
H           2.09203606254315   -1.03634313600816   -0.63045585423722
O           1.17140697988898    2.17917545478854    0.93158499812847
H           1.70586278675314    2.17477801510895    1.72930752457193
H           1.53096115696239    1.46630343387402    0.37217393712717
O           2.08228116747283   -2.64431686961166   -1.28956470399637
H           2.38672571453897   -2.91803526672417   -2.15543551896078
H           1.12589940201995   -2.85539524439818   -1.25320956878181
O          -0.62871927032410   -2.83998676688722   -1.25426423255715
H          -1.02523332684726   -2.88026557574816   -0.37935079658350
H          -0.82990035487347   -1.95580898968575   -1.58860286161433
N          -1.27748639048191    2.56688637001170   -0.91908529912150
H          -1.91121348277772    2.54562699667723   -0.12859914371297
H          -1.68154110843096    3.15300734409965   -1.63812654513492
H          -0.41654675328565    2.99720874698991   -0.60152644878311
