    26
        -50.44600999  Gyration_radius:  2.52971901025 Dipole_moment: 4.445
 S          -2.20526802213412    1.22818839399311    0.02070848449138
O          -1.39870627575908    0.48905821219972    0.97282459617708
O          -3.36107090646500    1.85884202612849    0.53143864333276
O          -1.27215583335211    2.23889454876865   -0.68307923125654
O          -2.60312526528995    0.24879215827015   -1.11723321378672
H          -1.88966926872014    0.23854767297870   -1.82270444183895
H          -0.31214546382411    1.94056358730411   -0.50888516325732
O          -1.15661119900108   -2.00507130408534    0.05654526210982
H          -1.92441769198615   -2.13376055902169   -0.50450630771754
H          -1.30082569007114   -1.15282928891977    0.51173732293307
O           1.06020971457339    1.34900743693540   -0.24488642228959
H           1.07683953822905    0.43757877927136   -0.64357732448395
H           1.10396957736742    1.20279924481366    0.70598913691366
O          -0.65086020714988    0.28814282577277   -2.80729004740321
H          -0.29380557080712    1.18030548126498   -2.81730149286846
H           0.04338502027469   -0.29556538325245   -2.45044017160911
O           2.91801635177422   -1.10798997663833    0.70278582016702
H           3.63048903531523   -0.46818864063460    0.67201962874652
H           2.28078365217799   -0.79520142778266    1.38186410713380
O           1.02268058340914   -1.11574931587497   -1.20191992122267
H           1.82159305298460   -1.35506324402280   -0.69289194754089
H           0.28203986162697   -1.58181252938739   -0.74981206142527
N           0.99573199460377   -0.17717613571160    2.47617267615416
H           0.08730472660481    0.03550391962398    2.06455271186575
H           1.16622670120222    0.51732802396998    3.19532031542184
H           0.87939160441332   -1.06514448595644    2.95256904125866
