    26
        -50.46798561  Gyration_radius:  2.47744566837 Dipole_moment: 7.274
 S          -0.71184840330563    1.28347417391362    0.72641695429897
O           0.53185146992074    1.55842206426264    1.42596798418050
O          -0.51476511982470    1.29017225236394   -0.72873747308789
O          -1.32920127423474    0.04627104496858    1.16608797293910
O          -1.70737898514115    2.45774254878732    1.00761129904458
H          -1.81228066790191    2.40197222834882    1.97731060310040
H          -0.32008812510528   -1.33360394748353    0.96207477418978
O           2.40035679861270   -0.25985223073074    0.95625481216831
H           2.17296698561430   -0.04973960710990   -0.50152465260919
H           1.85450328303773    0.48533707892177    1.29021042456170
O          -1.32779328703416    1.51529453517248    3.44463495887041
H          -1.54738339652728    0.67320059977195    3.02065811592479
H          -0.38589231151501    1.63882584152815    3.27061750135370
O           0.24649642397305   -2.10457487317132   -2.12832421233664
H          -0.60290466903450   -1.60348645123249   -2.13628778256093
H           0.06107464022214   -2.96954984277344   -2.49570961878374
O          -1.90021795372598   -0.55785080139453   -2.01700364025613
H          -1.50734322345130    0.12694151203519   -1.43316167272964
H          -2.40238600374969   -0.08365179633443   -2.68151283306023
O           0.39171727976477   -1.96821080065480    0.74784697979431
H           0.29014884288865   -2.17112045244913   -0.19197874917374
H           1.81779628410753   -1.04797708254615    1.07102691296326
N           1.71712776500661    0.12694645087608   -1.48593611268942
H           2.33401722085324    0.61825310757076   -2.12245256720837
H           0.85289345460124    0.69790475396141   -1.26524105757130
H           1.39853298197281   -0.77114026657727   -1.87884893136198
