    26
        -50.44549890  Gyration_radius:  2.58452926429 Dipole_moment: 5.785
 S           0.93958548206995    1.50617861633271   -1.85571683197643
O          -0.22000490624173    1.81082525634020   -1.04445882122608
O           1.54882089540839    2.58809855474199   -2.53148593021614
O           1.94955574338055    0.75542406038645   -0.93723379369582
O           0.57173169523385    0.40963307608449   -2.87933522473132
H           0.17114377368801   -0.38379814214047   -2.41627029007558
H           1.77266931139232    1.11378276326254    0.00606915350871
O          -0.21674963849261   -0.49064238405602    2.04039085498693
H          -0.78480012083172   -0.25871939631065    2.78334836739266
H          -0.81711653468484   -0.42998674520833    1.26251892825378
O          -2.72015438962191    0.71238664796706    2.52677807440338
H          -2.69159787851123    0.49002483328233    1.58573408891894
H          -3.37597057558710    1.40295696108411    2.62512432423939
O          -1.83924640949988   -0.04674041333875   -0.07302790270386
H          -1.67331549494257   -0.77007205690386   -0.69081307794308
H          -1.35594570346813    0.72012607377795   -0.44655117475141
O           1.18331767732593    1.64296430329564    1.29239508658320
H           0.48174535444649    2.15123134716845    0.86517367266807
H           0.73578016029870    0.85532764112275    1.69450725140913
O          -0.35706148700937   -1.71145918081712   -1.71501118159865
H           0.34394764759238   -1.88313277150713   -0.99303822305980
H          -0.28929350011151   -2.42804940655475   -2.34825891310321
N           1.47317489517299   -1.98218993369460    0.12172087179858
H           2.11743722823438   -1.25029761688611   -0.15960537793494
H           1.99950051727989   -2.83031576882696    0.28640723585875
H           1.05284627739533   -1.69355632875395    1.00063882317633
