    26
        -50.44507670  Gyration_radius:  2.47136650789 Dipole_moment: 1.831
 S          -1.63410125083925    1.14167467210901   -1.07925798754235
O          -1.97522058738419    0.79958262115625    0.28222911500670
O          -2.16901810350960    2.35815932307178   -1.57191673349873
O          -0.07023124878329    1.15993842991616   -1.18959028392139
O          -1.97740662673252   -0.02798717007196   -2.00005549078669
H          -1.63783943553219   -0.84718870360384   -1.50288150958268
H           0.36940270736356    1.50893309517114   -0.37018748768118
O           2.41582652399156   -0.56185254174694    0.57803498175051
H           2.27816125311028    0.38902956535026    0.62476457049187
H           2.25907724942312   -0.81953949591175   -0.35990032975781
O          -0.76935277164322    0.96344811726278    2.56980116941845
H          -1.32079948639006    0.89589533391585    1.75366495327902
H          -1.35444766598974    1.24201102767426    3.27558455218687
O          -1.14100147955504   -2.03431952012260   -0.68683275890005
H          -0.64710536792452   -1.80852171191874    0.16325142862608
H          -1.90273884009514   -2.54764389325234   -0.41053422560005
O           1.07934935077391    2.05442403640657    0.98070508580939
H           1.02549904853240    3.00902165899373    1.05664455862614
H           0.52801526453903    1.67427521992903    1.69913305411153
O           0.12691970987360   -1.53337035455380    1.51666485148527
H           1.04429351583628   -1.28270864183723    1.24885991712594
H          -0.20381879318953   -0.78683625436446    2.03188046368739
N           1.58504347901337   -1.20706208330443   -1.93671612743054
H           2.11454115459600   -1.50313434323497   -2.74647637426331
H           1.11333514468194   -0.33863894885940   -2.16352323961601
H           0.86361724583032   -1.89758942819242   -1.76334614303072
