    26
        -50.45650690  Gyration_radius:  2.4317007419 Dipole_moment: 7.718
 S           1.62110497671881   -0.16561836373821    1.24156793647546
O           1.56527463626096    0.00572243617064   -0.21399159349160
O           2.17296195550227    0.95774298726438    1.93249167688202
O           0.09523403819596   -0.31443599843289    1.68887700821644
O           2.17139513979472   -1.47942350622909    1.58163057539511
H           1.13268094801770   -2.36266712411782    1.19296691939784
H          -0.22234282259241    0.61945450194663    1.66238973598754
O          -0.20142086741067    2.25152391262266    1.35630717765424
H           0.65452039963960    2.27224156768677    1.80802766447521
H           0.02734555238751    2.44520250056414    0.41169108404045
O          -2.23348285094361    0.71849729313767   -0.11489357843116
H          -2.25202991758532    1.15078949808386   -0.97601827018069
H          -1.82182225930537    1.34171411060981    0.49610712998736
O          -0.56183406359148   -1.22112765733404   -0.96894790390387
H           0.29187939870012   -0.74152453130532   -0.78200721308599
H          -1.24853204522768   -0.66659280223464   -0.53172596431624
O          -1.12040892696763    0.79750115426249   -2.83084481378230
H          -0.88666842773448    0.73554403648550   -3.75752592937205
H          -0.91186733381525   -0.06142932682388   -2.42353413826504
O           0.56863577175184    2.30042714184624   -1.17169232688900
H          -0.05359775398387    1.94535673532643   -1.82646739866064
H           1.14045418781486    1.54857213146017   -0.92561433303814
N           0.22558786809485   -2.92806007862246    0.86589134083849
H          -0.42568329246921   -2.93122166921343    1.64568676313336
H           0.45950194154435   -3.87207946649305    0.57553486326680
H          -0.18688625279821   -2.34610948295200    0.06409357765170
