    26
        -50.45053200  Gyration_radius:  2.45705409361 Dipole_moment: 0.766
 S          -0.58887672432927    0.57790110165639    1.64500049274958
O           0.77447723869695    0.75891282630107    1.23332119224047
O          -1.17267393553934    1.69243021250646    2.32291145241056
O          -1.44888491646987    0.23781649451590    0.38117424560537
O          -0.75129687443937   -0.69447700521192    2.46586531162950
H          -0.32764496239991   -1.46670506909216    1.93465366517594
H          -1.21177657595468    0.88094793711479   -0.35118848816660
O          -0.79107700508392    2.01628484115575   -1.36203408678837
H          -1.53624487307789    2.48458444532881   -1.74562829163134
H          -0.37654958912338    2.63482481773129   -0.69964694333692
O           0.17077780408785   -2.59472281412960    1.07333226816183
H          -0.33385076548284   -2.48010749018707    0.20436221722024
H          -0.13325141706347   -3.42419114037044    1.44896638993140
O           0.28387023630821   -0.54028985869723   -2.43442018644642
H           0.01859785839478    0.36862295875367   -2.26042470536848
H           1.09423088059982   -0.68977146662627   -1.88674991022086
O           0.13769081094025    3.37714401535330    0.67181599299282
H          -0.44125480026462    3.03662135523387    1.37719887870043
H           0.98077292988772    2.93751181629010    0.82704339867278
O          -1.25959624851832   -2.17158552580631   -1.03603615781384
H          -1.84009486184903   -1.50314845972650   -0.65763353423514
H          -0.69435863582595   -1.67300037690577   -1.68130842678467
N           2.23333302675558   -0.92019924293276   -0.61369348275624
H           3.22239293650639   -0.73108932678201   -0.71429529666863
H           2.13346409011309   -1.84593901772586   -0.21493987141623
H           1.85782440302320   -0.26837602777532    0.07235387618163
