    26
        -50.44844921  Gyration_radius:  2.57283242155 Dipole_moment: 2.467
 S           0.71638474015665   -0.44962270291133   -1.26798308463871
O          -0.39191756806732   -0.86334418132239   -0.43042548120956
O           0.43860509219458    0.66823728908548   -2.10145246771401
O           1.93835402328242   -0.18820148279806   -0.35493711066025
O           1.20042632811535   -1.63372065130824   -2.10127406994675
H           1.66982657734750   -2.27175845428434   -1.46545285543394
H           1.77788556771487    0.64614728286648    0.22303229141453
O           1.42511657872629    1.74116360118315    1.18027891401893
H           1.99495878224663    1.74228070467122    1.95242302663187
H           0.51845151352080    1.41476661007433    1.48961225974422
O           0.45094726643915   -2.54489567967444    1.45371874795525
H           0.27041466888479   -2.11827040482851    2.29371676521743
H           0.00216436382946   -2.00467351351043    0.77512045683465
O          -2.38800509729391    2.60617231149581    0.70759484518911
H          -1.84729463815388    3.37288160302133    0.51047554435302
H          -2.49095460023126    2.11729647454613   -0.15051354535793
O          -0.85120522156959    0.70693798072514    1.75551035443259
H          -0.87228364947788    0.09433943525732    1.00143268521364
H          -1.51076718241628    1.40625809906414    1.53027415654366
O           2.41062867161849   -2.98671107769461   -0.30931389066677
H           1.74989787011242   -3.02572732829840    0.41425351537583
H           3.06085589407736   -2.33040574001249   -0.04279137777023
N          -2.37098042373497    1.15908569160587   -1.55903195327944
H          -2.59760586411159    0.20816820494625   -1.29192729741604
H          -1.38919083303860    1.14897487044761   -1.82908651082891
H          -2.91471288047603    1.38462104825360   -2.38325390823256
