    26
        -50.45621082  Gyration_radius:  2.46398079068 Dipole_moment: 3.900
 S          -1.42026806712205    0.55783801992817   -1.02101955480779
O          -0.86864626196579    1.14614460517770    0.17921904726762
O          -0.91953671584107    1.15314623830775   -2.22535527018270
O          -1.17110285458642   -0.95207659336580   -1.01284631268048
O          -2.94488224582392    0.63657769001467   -0.97946210978134
H          -3.21095179965318    0.01985993293539   -0.21846361515146
H          -0.16785584554602   -1.22505411322701   -1.12213144689323
O           1.26737620147182   -1.47168725900791   -1.19007569494810
H           1.60900191289929   -0.62226609537974   -1.54063923466447
H           1.50781315584322   -1.50711257696140   -0.23777748767489
O          -0.98664429613017   -0.72587672093588    2.06954062582744
H          -0.16525837204310   -1.22051956567798    1.95070778067326
H          -0.88274524812050    0.06365831838437    1.50687799091463
O           1.73311539356437    0.98025760675520   -2.22614823465100
H           2.00873433541677    0.98764385719544   -3.14528680875215
H           0.76923283260674    1.16662052381480   -2.23804910727320
O          -3.41731833787098   -0.86089832521670    1.03460302453575
H          -2.52076942463772   -1.00464066020713    1.42740377146763
H          -3.92325577783825   -0.38797818547700    1.69994533380798
O           1.75932622209017   -1.23408310804625    1.43308680373262
H           1.87397986908730   -0.24594357172333    1.30047756286618
H           2.54244545012229   -1.55081381328815    1.88460461764791
N           1.94080929647940    1.32514970199434    0.78592489441289
H           0.94041632411589    1.47587375770095    0.66193197951965
H           2.35102396594902    1.41703530662458   -0.13749060704113
H           2.29596030757616    2.07914499968377    1.36042205182626
