    26
        -50.44854977  Gyration_radius:  2.63417008127 Dipole_moment: 2.515
 S           1.03754527077354    1.24305386046156   -0.21681333341621
O           0.79578991423166    0.71034813508966    1.10261651271293
O           2.19944315915413    0.73949034481485   -0.87448108521132
O          -0.20284821091350    0.98247000068496   -1.09351915368231
O           1.13905998804402    2.77114002934835   -0.15638562159544
H           0.26191509457646    3.13677743058242    0.19404682137752
H          -0.94816433739394    0.47165930421756   -0.61664931774673
O          -1.58075334381279    1.38928130559758    2.10494941192285
H          -0.66724569867393    1.07548107512608    1.95566079579121
H          -2.12571987714949    0.82117617520134    1.54560484662965
O           2.11532528532994   -1.38458531185467   -2.49133901779253
H           3.04409926855213   -1.55097123988568   -2.66464689067513
H           2.09470061449250   -0.57533926297759   -1.94339271741174
O          -1.06442422196859    3.60169853230802    0.82647351790895
H          -0.90220063172091    4.30374436883912    1.46010633093805
H          -1.38144885448914    2.81392841076712    1.35153559639591
O          -2.02713246583735   -0.39433882729649    0.01628287341656
H          -2.47781722646964   -0.84290796651572   -0.70119129281134
H          -1.40124182432082   -1.09813594965463    0.46526930609765
O           0.78626359099107   -3.35965626933263   -1.21704929494605
H           1.28855804414556   -2.64450288897152   -1.66245472162362
H           0.32951571315746   -3.82986867589026   -1.91575906601041
N          -0.30711864016470   -1.98062618783843    1.05048697206238
H          -0.48311160839642   -2.55186185049532    1.86617629149274
H           0.38307385559532   -1.27508874270208    1.29284111653313
H           0.09393716228520   -2.57236580963250    0.32163110965508
