    26
        -50.44940823  Gyration_radius:  2.4547006634 Dipole_moment: 5.594
 S          -1.56088377632033    0.36459069050851    1.72551940313137
O          -2.16660877017810    0.32818546370441    0.40561210184218
O          -2.41527330020936    0.09698907125882    2.82096569246070
O          -0.34283955227820   -0.58554627583984    1.72793127651813
O          -0.85432040184006    1.72866215204877    1.88515672166977
H          -0.96002008812776    2.22525642631146    0.99847313179632
H          -0.33443619454521   -1.42701798666154    1.04915383180878
O           0.60111591337997    1.25227116538469   -1.62212092678133
H           0.07838555847223    0.45935111679139   -1.81583801269043
H           1.14601378620738    1.04812823650801   -0.84029982356500
O          -1.18688603177500    2.75900727207100   -0.40147617767521
H          -1.99968561015719    2.27895761463465   -0.59175893892948
H          -0.48193370841288    2.32864425250286   -0.95575956026183
O          -0.12905239248020   -2.40145232522502    0.07234559681584
H          -0.57712063351791   -2.02256488096399   -0.70957500177314
H           0.85153894681046   -2.29621697467943   -0.11228743179344
O           1.77349866744311    0.82110157582055    0.82569811356889
H           1.84372386934399    1.67385793128544    1.26026936463051
H           1.04955060191999    0.34894347470867    1.28023607805732
O          -1.28791341960021   -0.80650739847241   -1.75143204569823
H          -2.00965156237695   -0.97494402864240   -2.35870238794073
H          -1.68608418278545   -0.36827475806363   -0.95704174791265
N           2.41210136056760   -1.81067386246083   -0.45171452787338
H           2.49945862072996   -0.90549654149787    0.00061437402314
H           2.62942460012092   -1.68891201518660   -1.43304480349223
H           3.10789768955076   -2.42633935587131   -0.05092428990381
