    26
        -50.45621105  Gyration_radius:  2.46357845863 Dipole_moment: 3.890
 S          -1.18045604443167   -0.16294690035969    1.39356008313748
O          -1.03387105837246   -0.99936141181508    0.22314787677501
O          -0.47511679943485   -0.66133463775055    2.53802024689946
O          -0.74274861460709    1.26531442081386    1.06118044162792
O          -2.66248219342089    0.01736019875247    1.71531479405370
H          -3.02666983308366    0.56098479563812    0.93940337940411
H           0.28356629332972    1.37704602948454    0.89616695210217
O          -1.37037002252873    0.58940827142436   -1.88743317567680
H          -1.23554820657857   -0.12224193090240   -1.23470530187778
H          -0.48704240644659    0.94816884554903   -2.04390088393366
O           2.09289889132266   -0.94429173407970    1.91337599313107
H           2.58542959844647   -0.87272260289432    2.73381810363158
H           1.14640536932346   -0.95984394274766    2.17412206689744
O          -3.42157345130573    1.28413146160892   -0.36814275447793
H          -4.13811216667478    0.82000736657649   -0.80804621443957
H          -2.64174635748558    1.21466867395226   -0.97304078779294
O           1.71045325623145    1.38493825584284    0.59748858958681
H           2.01420647253032    0.54673028412000    1.00509177100538
H           1.70796620221177    1.24709606032950   -0.37557890675079
O           1.49024505485056    0.70585118021679   -1.98515115767538
H           1.50272672109474   -0.25934486164388   -1.71056762797230
H           2.16675961983856    0.81760291836483   -2.65390912914409
N           1.48833824016174   -1.73250344370896   -0.95772351334989
H           2.09908863201859   -1.76279549660161   -0.14807829993136
H           1.58861150828669   -2.60802873572036   -1.45578884385482
H           0.53904127485845   -1.69389306444695   -0.58862371135261
