    26
        -50.45592081  Gyration_radius:  2.41385321695 Dipole_moment: 3.051
 S          -0.59960995515281    1.30831372777870    1.11366248159392
O           0.72597093100954    1.08056367567358    0.59217846334735
O          -1.03332645641306    2.66382974195592    1.12166444698164
O          -1.58732094363609    0.40981916382618    0.34571986207629
O          -0.68243759197747    0.72104811663776    2.54167289476918
H          -0.30028467094179   -0.19994026128098    2.50141552433892
H          -1.35642095817739    0.45725736159429   -0.71628762005064
O          -0.89588956035749    0.49514528217006   -2.01292241587590
H          -0.22374674215429   -0.21511814727663   -2.01676261363900
H          -0.42504817502103    1.38276145519436   -1.98791677429274
O           0.70514267861709   -1.69184911097518   -1.64381313328198
H           1.19332049102368   -2.20066741015822   -2.29195781493117
H           1.34160817175072   -1.48600617977611   -0.90327063968825
O          -1.22284063811306   -2.33067304236675    0.22079512834411
H          -0.61874011689233   -2.26579436065599   -0.54106973030304
H          -1.72205650516132   -1.50169886325946    0.21700699024132
O           0.18422827000602   -1.73521861356198    2.32930189360349
H          -0.35052825432839   -2.05279686858860    1.54266827933253
H          -0.12066461640585   -2.23945290037059    3.08609746012438
O           2.19861936521108   -1.10715862452775    0.42375430014165
H           1.83285328804106   -0.20264930699877    0.49099669133088
H           1.84115789439393   -1.56160411208762    1.19619556521044
N           0.17669618004364    2.85264029016167   -1.54159136090957
H           0.14196621664016    3.68236975975281   -2.12150907757492
H           1.13772088225242    2.69842705146986   -1.26110551319822
H          -0.34036918426022    3.03845218566520   -0.68492327769311
