    26
        -50.44195777  Gyration_radius:  2.80639985557 Dipole_moment: 7.845
 S           1.24826595487571    2.41354297702171    0.65458642426043
O           1.64113990964922    1.02030289316881    0.51853861479426
O           1.92630921914082    3.31509943296860   -0.20149593063478
O          -0.28877637022290    2.48802583407356    0.49308885247025
O           1.41561799869644    2.83790512367419    2.12081527235770
H           0.73494249386970    2.32199192812210    2.65749367099389
H          -0.62502305796116    1.94506342561785   -0.28895523509519
O           0.16006343021321   -0.69511377409234    1.90953626292405
H           0.80164663744362   -0.14687783510807    1.41344494237419
H          -0.41579895728792   -1.07270498587550    1.23126712239989
O          -1.30697393921506    1.03253935743682   -1.33908331893745
H          -2.25158417704842    1.14561202121394   -1.21558235587790
H          -1.09632033199086    0.09285412065737   -1.07412657561545
O          -0.73977855497773   -1.43216532327768   -0.65448927548445
H           0.22605853749282   -1.40430490520215   -0.83676472287222
H          -1.11290360934444   -1.99889701963992   -1.36294022866704
O          -0.24315785985354    1.39091320070692    3.45120361485364
H           0.14514043550891    1.17603000932383    4.30211532032809
H          -0.23528965895981    0.55202142416636    2.92307651733810
O           1.89687880831537   -1.11761783874424   -1.08040904882438
H           1.90596567442204   -0.23914861858797   -0.65593413506295
H           2.51604507172159   -1.65185135528425   -0.57926674101442
N          -1.53951933259651   -2.87116311930837   -2.85664797205598
H          -1.28709471816016   -3.85034037297410   -2.80628702281288
H          -0.96899105687659   -2.43948974999233   -3.57395288693339
H          -2.50686255684613   -2.81222684006912   -3.14923117521033
