    26
        -50.44787255  Gyration_radius:  2.56469526374 Dipole_moment: 4.004
 S          -1.33217488556006    0.80966283011567    0.59795124891076
O          -0.31022135490507    1.05502544320511    1.57670366738748
O          -2.12322778200533    1.95096032664644    0.24483818696392
O          -0.63229999768970    0.27619687696172   -0.70592940935380
O          -2.19756046063707   -0.36034146587747    1.01094474251571
H          -2.32735413474429   -1.04331639743853    0.21681061720928
H           0.19855403080722    0.83347490271341   -0.78497780881600
O          -0.44406154251888   -3.37754475618750    0.29081454327284
H           0.07670584289100   -2.65315112437020    0.72731713048823
H          -0.76732610521409   -3.92951653124947    1.00471969831169
O           0.86971697780779   -1.41958296604716    1.45949668899393
H           1.62778913760849   -1.18229379080916    0.87808175111397
H           0.42496547794191   -0.58625288761611    1.66996983542873
O           1.29686021765900    1.94648704070847   -0.43797908656915
H           1.14221215147767    1.86309178373564    0.51525286370634
H           0.82179269801315    2.76519047645488   -0.69776137126399
O          -0.55106202531763    3.81728844198989   -0.84026314552966
H          -1.21195362445666    3.25993691472085   -0.38176924040599
H          -0.99491864877390    4.18540007023643   -1.60621851787734
O          -2.27578938261016   -1.96965471797656   -0.88413473429513
H          -1.61582848102015   -2.61986355408645   -0.49769469919288
H          -1.78616796119186   -1.46639506753178   -1.54228684627808
N           2.85182238680182   -0.63945102812826   -0.27446863722391
H           2.86259821545325   -1.19462121787830   -1.12033055901828
H           3.78902413305841   -0.63272491611085    0.10709128925071
H           2.60790511712959    0.31199530382454   -0.52617820774744
