    26
        -50.45117507  Gyration_radius:  2.49889192804 Dipole_moment: 4.836
 S          -1.15401120213790    0.78023867076975   -1.06152224901499
O           0.13130657352563    1.27826067698526   -0.62598536997517
O          -1.25855964776476    0.49161219972081   -2.45444191234928
O          -1.44117888269661   -0.52149450764850   -0.23997001013182
O          -2.25840121893282    1.70839871221410   -0.60538082625035
H          -1.91984389549648    2.14074305146811    0.29148416307333
H          -0.76839645112712   -1.22267309702015   -0.50999288414228
O          -1.49684188381647    0.17571453440196    2.55651798834325
H          -0.62986642983988   -0.16800244478121    2.86418959926915
H          -1.70525786181056   -0.31092892861519    1.75111994122315
O          -1.15969499729045    2.51494359005758    1.47264100104346
H          -1.32085739085172    1.70917795955477    2.04480431288217
H          -0.28251852154198    2.40191749199806    1.08415777529503
O           0.34298652950239   -2.18820814007160   -1.04929420760519
H           0.77286791120960   -1.65471906693814   -1.80094834674089
H          -0.06478938835636   -2.95890362209276   -1.44884683401144
O           1.88408867098834   -0.41139234796906    0.55995681203753
H           1.60782889183339   -1.24651599839111    0.16678345590141
H           1.33799806979418    0.27310720232378    0.13328628816818
O           1.00970831275258   -0.62132532016903    3.08269708112219
H           1.41185152220019   -0.56298000082738    2.18647644639574
H           1.57881273926876   -0.12328190075919    3.67042289002274
N           1.31157675616216   -0.59451467837190   -2.86611129047705
H           1.66035025962917   -0.84664889332797   -3.78229532042849
H           1.97455248226205    0.04115880670834   -2.43975619432073
H           0.43628905253185   -0.08368393921758   -2.97999228936440
