    26
        -50.45192265  Gyration_radius:  2.4912166559 Dipole_moment: 5.219
 S          -0.81034082400215    0.94926160917610   -2.01291452480706
O          -1.07303711504924    1.91875308885751   -0.96491747138570
O          -0.76668900107184    1.45152236800995   -3.33518696244991
O           0.52601657995580    0.24030227674108   -1.63785431777336
O          -1.82106995362827   -0.19922747082777   -1.92712244134266
H          -1.86539764331228   -0.57339710337181   -0.97804548909510
H           1.04617549747667    0.90607627458378   -1.04546294227171
O           0.78937313243967    0.81427067055651    2.12131515362713
H           0.78545073533890   -0.14128845625871    1.94445069355889
H          -0.14136619864066    1.08712128632522    2.12129814340000
O          -1.83541026136388    1.47196921367720    1.48525533725166
H          -1.57324034409189    1.71102142343252    0.56197115860435
H          -2.52851532660847    2.08349016995893    1.73704239915792
O          -1.88865072084814   -1.04359233564238    0.47059560675698
H          -1.02307134884257   -1.39814650846492    0.75919306256236
H          -2.02302102022730   -0.22698253160144    0.98530747920813
O           1.56021685469191    1.94679908115098   -0.11871551210311
H           0.85641651667718    2.59219778348536   -0.25081495419543
H           1.40220130677173    1.55610056459858    0.78568622755494
O           0.54766759094961   -1.83863909735987    1.36321134894906
H           0.64045909683465   -2.61468523153631    1.91720173060403
H           1.09777360799349   -1.99606087060688    0.54135144835701
N           1.91964234069506   -2.20063724206959   -0.87862749784516
H           2.91633229757662   -2.02694718551478   -0.84117377711720
H           1.49366357925719   -1.42657044483539   -1.38314642191669
H           1.76842063102514   -3.04271133246530   -1.41989747728880
