    26
        -50.44799099  Gyration_radius:  2.46682050574 Dipole_moment: 8.304
 S           0.39619127036162   -0.72321913915349   -1.92078356216281
O          -0.24661863704390    0.42221232711850   -1.28669282327571
O           1.26074354626436   -0.38397875492622   -2.99472706042502
O           1.18789340266530   -1.46846573870837   -0.80935214676603
O          -0.65989648396998   -1.73130365316899   -2.32497132765870
H          -1.33210297037329   -1.85725615449112   -1.52580145195041
H           1.87210662578915   -0.76980915001990   -0.41612205294373
O          -0.30482719745129   -1.52183579207818    1.51139698478846
H           0.04627365588611   -0.69577234682195    1.88030261222514
H           0.32306670942675   -1.77925228760906    0.82265060646437
O          -0.56970091544385    2.27741612787131    0.57506992800174
H          -0.42612422899093    1.59644713605267   -0.11578669961803
H          -0.35868122577436    3.11835053502279    0.16671805998966
O          -2.87938231663971    0.70352206603799   -0.69347496418441
H          -2.77770029083357    1.26490553171712    0.08000916906381
H          -2.00657228758687    0.69350230448761   -1.12389573389193
O           0.85465868756578    0.90972401578386    2.37418913947470
H           0.61750603857405    1.10710483991325    3.28160269289665
H           0.29499810602468    1.48041428465710    1.80377135120433
O          -2.21642992629168   -1.87906103953636   -0.36895829771791
H          -1.64886485475724   -1.80801846347928    0.42779010059174
H          -2.69326001969740   -1.02461802752911   -0.44285259921774
N           2.69318324549979    0.32121172594191    0.17369961731742
H           2.24662117854196    0.59208232809548    1.04683393697360
H           2.67436232551607    1.09652035157176   -0.47465242801635
H           3.65255657268395    0.05917696318087    0.35403694878176
