    26
        -50.45002659  Gyration_radius:  2.51446933574 Dipole_moment: 6.065
 S           1.74040741881650   -0.86357147698469   -1.68904452882985
O           0.60064691291231   -0.21231013990843   -2.29108557193483
O           2.94618692575152   -0.86676145843087   -2.43066991620896
O           1.95242847565864   -0.25326962678737   -0.27428272541460
O           1.34448289680208   -2.31805704384221   -1.33530356199293
H           0.47841728695360   -2.23291737516331   -0.85366275511825
H           1.56378184232307    0.69346356955173   -0.17544854368247
O          -0.93476049203064    1.44037784339021    2.01153162986256
H          -1.44154178404637    2.15920640742883    2.39104767412032
H          -1.52008224672826    1.01738214716277    1.32603834100688
O          -0.96199631647697    1.82259983307596   -1.91809274704814
H          -0.41274177564558    1.03492290219241   -2.14506601114539
H          -1.11584007393525    2.28830141045090   -2.74104338708766
O          -2.27679379817398    0.35420240809604    0.02691996894826
H          -1.98753429342603    0.89978963042414   -0.72219204529220
H          -1.85158401075293   -0.50987985307473   -0.09617560691965
O           0.88726448640349    2.01404057998243    0.08874987434803
H           0.33066911747581    1.86215449125039    0.88244763033201
H           0.25822746026101    2.13916094084640   -0.64520204568185
O          -0.80207224844350   -2.01719382934435    0.09807032257479
H          -0.32302160110835   -1.70184632779232    0.94312012274520
H          -1.21524938338430   -2.85701200102963    0.30700132784089
N           0.52315299873813   -1.11916751743564    2.15262394797249
H           1.39221640460197   -0.89555465915008    1.67827782438787
H           0.73717618367535   -1.63808603462344    2.99393666179386
H           0.08815963377756   -0.23997481027740    2.41750411041783
