    26
        -50.45296986  Gyration_radius:  2.45268704529 Dipole_moment: 9.679
 S          -0.90183142416472    0.35201345924263   -1.88626674787372
O          -1.27793054070266    0.33476991441843   -0.46902253418494
O          -1.42422853764577    1.47742173969636   -2.59951138983999
O           0.69344056689803    0.46948138362638   -1.87105317591224
O          -1.13366024894920   -0.97428348427234   -2.45868578488725
H          -0.31770609145445   -1.67835481360029   -1.49998302033902
H           0.87392130500927    1.44716558317076   -1.80884033338533
O           1.97797012194242   -0.42151283863295    1.18401225686848
H           1.31969874895411   -0.96384530237280    1.64379032708975
H           2.71985952742224   -0.31008616130144    1.77995172557400
O           0.27084141963682    1.87989877938454    0.98680570983155
H          -0.36559946990226    1.36577730168347    0.44455253439561
H           1.04810176675247    1.30700929769236    1.03575189783568
O          -1.81566061978156    0.00479771824575    2.08801187756417
H          -1.33766972472662    0.80139813951960    2.34606466571507
H          -1.91884324139302    0.09401975203891    1.12104939614572
O           0.57356929935464    3.02135594333245   -1.50181864772812
H          -0.29632313577972    2.91260620850990   -1.91625500674800
H           0.44740949610669    2.94650313888372   -0.53698730471663
O          -0.21207280395821   -2.03130098012658    1.89657428244099
H          -0.84123749099843   -1.25748518847775    2.01206376526897
H          -0.61367084457919   -2.76340389709752    2.36655795030862
N           0.45049090471457   -1.97269253264072   -0.75903453264445
H           0.95400768406824   -2.80460537560508   -1.05119908369430
H           0.05359567597308   -2.08324262807103    0.19939421544809
H           1.07352766771152   -1.15340514739108   -0.74592303287215
