    26
        -50.44647284  Gyration_radius:  2.52716846099 Dipole_moment: 5.476
 S           0.33835664233084   -2.06587453903062    0.00196412568921
O          -0.46539986255072   -1.77125101008874    1.16943516772022
O           0.03544578650187   -3.23972504000317   -0.72593835128013
O           0.22350228605761   -0.83880824678180   -0.95568835570838
O           1.82309978563231   -2.04108292330100    0.39768515912654
H           1.86930040026297   -1.47259055977515    1.26163079713486
H          -0.25211991693688   -0.03472380671964   -0.51077988236848
O           2.72385423776331    0.38636242072055   -1.00401308049598
H           3.34368668970729   -0.26600583571310   -0.66896364938867
H           1.91848526672216   -0.10378168313385   -1.22555598285832
O          -2.75391835044934   -0.42768537683505    1.18916338871139
H          -3.08429273543011   -0.38883155263380    2.08838292628476
H          -2.02310326162701   -1.07953929548006    1.19238207850330
O          -0.98783114741167    1.15864489708041   -0.00343058974759
H          -1.73085509586649    0.73207237904559    0.47956741370592
H          -1.36133600863267    1.46173127286597   -0.87270061057418
O           1.53310157544130    1.66916519865730    1.09992527740314
H           0.62423751571749    1.73560587912492    0.77488857638389
H           2.07562412515672    1.42135204414781    0.32711127594159
O           1.61953301878346   -0.59140940976098    2.42455394881252
H           0.68852610349434   -0.83968701853979    2.49921981227810
H           1.64055974639127    0.33572217792532    2.05745030919941
N          -1.88342103991065    1.58140966364987   -2.48851895230115
H          -2.88517020472613    1.48555684221090   -2.59840497427840
H          -1.44189521397865    0.78064770885509   -2.92496571225688
H          -1.58797034244426    2.41272583346786   -2.98440010563218
