    26
        -50.45186193  Gyration_radius:  2.47636003228 Dipole_moment: 4.940
 S           0.56529242349091    0.35570851469100   -2.19543808743841
O           0.86713409939534    0.85367328208435   -0.85849080983131
O           1.60549420661327    0.54354116459552   -3.13952910999343
O           0.22074100253162   -1.15912342698015   -2.05128972271171
O          -0.75003574121215    0.94584290948765   -2.65377844679456
H          -1.45132869089623    0.79294669682124   -1.87493133309009
H           1.05084843236195   -1.60951475251180   -1.71965400416395
O           0.99022286030240   -0.94034158953752    1.10998093415004
H           0.68768098396538   -0.51673892407399    1.94988415682398
H           0.99886288917973   -0.21162499483765    0.46041389253202
O          -0.69677248228102    2.33807095219545    0.70010233046516
H          -0.02055650082439    1.86878846780536    0.16729327311869
H          -0.69862962439131    3.24618245738797    0.39317431235206
O          -1.42325044980622   -1.74427141181428    0.19531024801947
H          -0.55696762768561   -1.55902690487040    0.62159903705515
H          -1.21391272958249   -2.18119423096349   -0.63453773597252
O           2.37679729054559   -2.01960783633224   -0.93798838763436
H           3.05348839929912   -1.37100872381161   -1.14658909532007
H           2.07649543470084   -1.84206177662617   -0.02656438502279
O          -2.25974253204475    0.59777255559390   -0.70383244064747
H          -1.90730768551577    1.24299240195763   -0.06121193126362
H          -2.05337873199366   -0.30090583037412   -0.33377886220074
N          -0.20053873841489    0.49352714374479    3.05562219686808
H           0.25252413809169    0.86809439486114    3.87915075540801
H          -1.05465762086346    0.03594936435421    3.34894717424832
H          -0.45850301465353    1.27233010723087    2.45613606068424
