    26
        -50.44664168  Gyration_radius:  2.47715983814 Dipole_moment: 5.174
 S           0.12163515390596    1.37151047013917   -0.87589692459454
O          -0.88376060540087    1.07293933480946    0.13764372369082
O           1.22373131684467    2.13034470207974   -0.40143006027279
O           0.56407356862464    0.03055670732309   -1.48299483399338
O          -0.55896696528663    2.07305591455097   -2.05002333802684
H          -1.07184479895658    1.36511723558746   -2.57244216788142
H           1.45342007328231   -0.33631264244667   -1.03045498404570
O           2.56173474987597   -0.94085152715529   -0.39132533728503
H           2.62905253630187   -1.84747022862038   -0.69978310021276
H           2.27565429273525   -0.98629962016226    0.60950963868556
O          -2.89222293526734   -0.44402213282314   -0.86078018360278
H          -2.36315718713095    0.26414143779479   -0.45263209785229
H          -2.64811295523880   -1.24452732904979   -0.38306096586430
O          -1.69529681083877    0.08920659348853   -3.16187779454277
H          -0.94729023360358   -0.51481301422213   -3.12579926708133
H          -2.30884018038138   -0.18248276012734   -2.43765204693886
O          -1.17098524480389   -1.34615207693695    1.36105543979234
H          -1.68126601575498   -1.14177707302053    2.14764628381033
H          -0.98304524491766   -0.48791608240895    0.93960243644756
O           0.77609636786194    1.62924321280208    2.27964841577167
H           1.40453690380630    2.13681712101089    1.75549058813266
H           0.01592893874227    1.53115081482051    1.69006430284891
N           1.68414519905604   -1.07179335849839    2.01852618012833
H           2.22004634135498   -1.50477618608362    2.75875921560841
H           0.78542679774867   -1.54209102729365    1.94372328589218
H           1.48930697735843   -0.10279848543003    2.28448360136456
