    26
        -50.46785600  Gyration_radius:  2.45637616712 Dipole_moment: 6.739
 S          -1.04407472051268   -0.41115701114073   -0.44451429085077
O          -0.82883418665151    1.03062921962425   -0.55344509441183
O          -0.12578149846825   -1.11194155613775   -1.35251696861930
O          -0.88590199540405   -0.87459888712248    0.92401180995857
O          -2.46899110909488   -0.74171254467365   -0.92754018621356
H          -3.03411179715732   -0.62271445906484   -0.10706766552287
H           0.65063478508620   -0.37110710271583    1.49792276537524
O           1.59924702286480   -0.14222261823508    1.56313128607813
H           1.76624724381685    1.27575955707908    0.65359424495634
H           2.04767973316041   -0.87058282210686    1.10697968046923
O          -2.40855080535247    2.09322811367383    1.29541928971156
H          -1.84745286098560    1.80115723324470    0.54727611914448
H          -1.80724790889134    2.38457446427476    1.98340222588525
O          -3.47064867517919   -0.37279729402075    1.39893141277155
H          -2.62501074804978   -0.74618757286205    1.69183993685642
H          -3.35563892590327    0.59692910426900    1.47442661165957
O           1.63387695462194    1.86296772727909   -0.13368137552709
H           0.66540489146597    1.80448085510842   -0.29002204887266
H           2.02862247535246    0.96148933579965   -1.21840889498552
O           2.07124576984531   -2.18549374650882   -0.27576500869246
H           1.98497033731350   -3.06233886867378    0.10090062106894
H           1.18059429273161   -1.94374076226115   -0.60803638678925
N           2.08994469940314    0.12316108141191   -1.94434790031897
H           2.30300382706922    0.42720038349147   -2.88783594786961
H           1.12674558147726   -0.32724437872902   -1.88014443894542
H           2.75402763820346   -0.57773748069927   -1.61450982977439
