    26
        -50.44664169  Gyration_radius:  2.47703464132 Dipole_moment: 5.173
 S          -0.70380938642521    1.08471251468396   -0.99480405830540
O          -1.29475822463656    0.48760822374370    0.19736550433503
O          -0.11749555092045    2.35996546670789   -0.78158022814269
O           0.30785335443008    0.07159959074951   -1.55413211159136
O          -1.76742015698579    1.14924725537515   -2.08956951824431
H          -1.88603087471820    0.20635471409756   -2.45540453067859
H           1.29929472486467    0.28110565510842   -1.23247667906355
O           0.04218028773210    2.13979813348799    1.96848175657354
H           0.25480369537176    2.80206365155578    1.30249686224810
H          -0.61182089482397    1.57893582999523    1.52943813524023
O          -0.14798176171676   -1.51376469394945    1.64998299867607
H          -0.48094613752011   -0.75855218588234    1.13204195693591
H          -0.60425659599080   -1.47056852490822    2.49308446982956
O          -2.30495936452532   -1.97272677020746   -0.31221235861243
H          -2.18519224658870   -1.03969073766967   -0.06128808482495
H          -1.63147199139538   -2.45247359682968    0.18271409467622
O           2.61948452915550    0.42933353624420   -0.74524747377177
H           2.50459151393241    0.40734442313119    0.29000757266198
H           3.11828699664943   -0.35555279534768   -0.98352554411871
O          -1.80861368924601   -1.28527369744533   -2.82080077132450
H          -0.85623589701054   -1.41482598377493   -2.86368799239350
H          -2.11067615036179   -1.70939352913550   -1.98201432867465
N           2.19389472252542    0.26269631223889    1.78171244169646
H           1.67035378846903   -0.60105697991086    1.90131415148941
H           1.55086664090785    1.02986011841473    1.99528463612381
H           2.95005868116069    0.28325408367624    2.45281908179758
