    26
        -50.44521348  Gyration_radius:  2.45392741633 Dipole_moment: 2.508
 S          -0.26173226503756   -0.01105905207285   -1.78843757731556
O          -0.61955629893890   -0.58897641452042   -0.50522183606655
O          -1.37441185077670    0.34893339891689   -2.59183326381580
O           0.67386693813551    1.19942300269973   -1.52882169403275
O           0.68178075947964   -0.96455236672530   -2.50949728331557
H           1.49337987992307   -0.99883545184770   -1.88947955980766
H           0.21338494292283    1.95123284911589   -1.02943118685695
O           1.78310759595925   -0.43074960519233    1.59569252178228
H           1.11690298237255    0.23496230313260    1.79026435871567
H           1.31700632275190   -1.29511442755642    1.69125017121112
O          -0.91398758460461    1.01241224237357    1.60849815822914
H          -0.75344969111968    0.33810386939960    0.91649988309352
H          -1.87621781111208    1.04102243830400    1.67290471076481
O          -3.09935559216958    0.67071793223395   -0.16057986277006
H          -3.36431988742856    1.12762458840547   -0.96109271612484
H          -2.41051099975767    0.05634448027495   -0.44253396851947
O          -0.38532862113283    2.98099254990408   -0.04824263387623
H          -0.64175556795338    2.35270026168461    0.67796299088219
H           0.28285297411295    3.56793450111578    0.31228994448190
O           2.61484357097350   -0.77687534686030   -0.88834179954719
H           2.30974553293215   -0.66667002510377    0.05391227980328
H           3.00757980152820    0.06349383453637   -1.13608595162108
N           0.23812038649427   -2.64383606277776    1.40843697448935
H          -0.24020773311323   -2.15654927719750    0.65516741721777
H          -0.45814451601097   -2.94015310854133    2.08044419782254
H           0.66640673159043   -3.47252710377018    1.01627573528238
