    26
        -50.44652624  Gyration_radius:  2.49912286339 Dipole_moment: 4.755
 S          -1.16646017976251    1.16836755730487    1.57990982535234
O          -0.83493443440674   -0.16759103473157    1.13428642657387
O          -1.31733134634144    1.33067317229993    2.97881965753605
O          -0.09821880710603    2.13965354353476    0.99487917119855
O          -2.43111854758525    1.63521178956024    0.83766421235225
H          -2.15059744849810    1.70153409596566   -0.12323804800866
H           0.82553312954176    1.76823903578480    1.19616436463314
O           1.01778805990017   -2.12176065732428    1.29075210157049
H           0.31104943344890   -1.44862428812642    1.30741822122256
H           1.48287397861623   -2.02939644674731    2.12402691669287
O          -1.36316587426603    1.88914771732103   -1.48887799839751
H          -0.87161557437856    1.09006269799775   -1.78627514498838
H          -0.69661032319185    2.50123947652755   -1.16316855209104
O           0.05355605691039   -0.25708484051188   -2.27570378875879
H          -0.45515134006322   -0.99955148893152   -1.82073506876652
H           0.07165303786038   -0.46334398395524   -3.21141859965030
O           2.21700215690101    1.16822212519612    1.33944249758969
H           2.90678273150858    1.81609225194943    1.18304635801198
H           2.27836748106225    0.50048670841672    0.59046078101562
O           2.23381107779568   -0.58392819830101   -0.57747414861869
H           1.88794991404527   -1.31206043000189   -0.02237112759803
H           1.52559789706455   -0.38791653111581   -1.21360972484417
N          -1.25170796446733   -2.10193586498151   -0.93695631960341
H          -0.64879974210787   -2.85700099699851   -0.63175387021996
H          -2.15520048845833   -2.49302482934770   -1.17111891571179
H          -1.37105286403436   -1.48571060078557   -0.13416921649140
