    26
        -50.43770114  Gyration_radius:  2.54456912215 Dipole_moment: 6.681
 S          -2.09856394342260   -1.09167817474374    0.57899180972203
O          -1.29087315432798   -1.16600183232157   -0.60637928917576
O          -3.03117449273568   -2.12999883281420    0.81134125628801
O          -1.11095004138870   -0.97035332739320    1.79505845713380
O          -2.82820842109877    0.27340122447270    0.63189442118679
H          -2.15490324479628    0.98286264318331    0.46483593462141
H          -0.18308287385279   -1.12654088801811    1.45837535885600
O          -1.03962912339010    2.17315315213141    0.46363400226060
H          -0.32810906601329    1.87085719182458    1.08515339477369
H          -1.44205528299066    2.94957707978616    0.85849934951797
O           0.42124726468476   -0.47845507998890   -2.69153561931979
H          -0.39636885943948   -0.59979122078073   -2.18959233093326
H           0.80502803962382    0.36024920372068   -2.35590055726268
O           1.24007714629385   -2.45813539344018   -1.19401651356551
H           1.10788361750661   -1.73512296480204   -1.86666084842832
H           0.37679312326612   -2.87869263306691   -1.14774511888138
O           1.35948242143984   -1.25851845195874    1.06456184184573
H           1.81998059340139   -1.89365480411570    1.61679508541179
H           1.34068082844665   -1.67350366156765    0.13509314495160
O           0.79087829935359    1.22075983216192    2.12008384424125
H           0.26147369864154    0.81078394356252    2.81004623264113
H           1.20297450478842    0.48160687875233    1.64112289679704
N           1.26769739448962    1.85438343509539   -1.51014343688625
H           1.51256023583729    2.61848018365677   -2.12624389593312
H           1.99391177409338    1.77048842640247   -0.81057282158729
H           0.40324955161477    2.09384407024693   -1.03669658830229
