    26
        -50.45355740  Gyration_radius:  2.44129467894 Dipole_moment: 3.962
 S          -0.49903446539368   -0.80687143405224    1.30096147823682
O           0.62528011646900   -0.84915840759334    0.39127318273017
O          -0.19644835601561   -0.26119117663416    2.58332797823061
O          -1.62581113662255    0.01977899912676    0.61538127356688
O          -1.13579493041346   -2.17619610681078    1.41189668531328
H          -1.51120132587212   -2.36668924338163    0.46299592758762
H          -1.36444079166682    1.00090207222813    0.56606022961850
O          -2.00489035164851   -2.35214045892364   -0.93088082290478
H          -2.48784075546236   -1.52190324658908   -0.97230645891166
H          -1.19636690949051   -2.24141245513772   -1.52854782710841
O           0.54818559729859    1.06992011988525   -1.58049224923379
H           0.53167310648747    0.35649556475764   -0.92286306745355
H           0.03806989620642    1.78957552730381   -1.19569173492871
O           1.05723837074997    2.11945191840238    2.17367416447371
H           0.71988068099629    1.30880303155382    2.59055805437036
H           1.82620909115807    1.83614847499819    1.63133593030377
O          -0.86053850709704    2.44576453199285    0.51940032237884
H          -1.49866902281870    3.05441722300130    0.89671642158848
H          -0.07518403464215    2.42295002805212    1.16694930557659
O           2.70844148870849    0.97575735659434    0.38526952092709
H           2.43940565029887    1.31374314363083   -0.47817558231077
H           2.22618395213798    0.14213960356121    0.48821095671555
N           0.18282527455871   -1.89838335994886   -2.32173451560453
H           0.18623066848792   -0.96359377561882   -2.71606713508833
H           0.55535363468441   -2.53717631728912   -3.01236828332693
H           0.81124304889863   -1.88113164311063   -1.52488374474362
