    26
        -50.45954367  Gyration_radius:  2.5824616247 Dipole_moment: 7.034
 S          -0.77894691691255   -0.52927412326163    0.87757760635041
O           0.44927741652917   -0.96131403665569    1.57748834580069
O          -1.92998755237433   -0.45554551192161    1.72297052896543
O          -0.41652796366496    0.94263371163675    0.37394814870650
O          -0.95406803479066   -1.26998250979406   -0.35904081765291
H           0.08121694568362   -1.99149510396750   -1.62118308810023
H          -0.36261888873584    1.51268306137530    1.18502310074985
O          -0.47780918472076    0.00317437989268    3.91321055939267
H          -1.36392824426501   -0.17016295030009    3.56036206883457
H           0.08824269297492   -0.50434031659987    3.30779509566495
O          -1.89454016116830    0.55657800358238   -2.03247078973744
H          -1.85530103930646    1.33500923208848   -1.47179212113612
H          -1.69221153436308   -0.19153528813963   -1.43225324967624
O           0.87698131787146   -1.93953270996523   -2.18578405384868
H           0.66780202958143   -1.24390235997429   -2.85333278410908
H           1.63695417645096   -1.12882330290237   -1.20350936950619
O          -0.10960049826917    2.25396841530889    2.60465721667718
H          -0.29344478513137    1.50294398329134    3.22956112327583
H           0.76056155774282    2.58615948430140    2.83340716230549
O           0.22570337523615    0.22413607237158   -3.59436330482533
H          -0.57968877368332    0.42437456197140   -3.05516022757491
H          -0.07902221617829    0.14836047428475   -4.49963831353529
N           1.96694782357971   -0.43265088627337   -0.41517667287031
H           1.42564035733808   -0.72279682809998    0.47774043607906
H           1.63610244863587    0.49903681523793   -0.66237753272227
H           2.97226565214685   -0.44770225752849   -0.27765906744966
