    26
        -50.44638638  Gyration_radius:  2.47344286322 Dipole_moment: 7.663
 S          -0.28494765672594    1.10782141565026   -1.90825542316606
O          -0.94931563305141    1.24047905059424   -0.62393452625090
O          -0.63873788528736    2.06477235005676   -2.89055552520296
O           1.24611384041880    1.07897283382194   -1.64242431085379
O          -0.54245338624301   -0.31535045552682   -2.42812747743619
H           0.17618626993839   -0.97070155984882   -1.97743815505034
H           1.43708664727578    1.57146329504928   -0.77343822093337
O           0.77413011697818    0.44331785054552    2.29087626410691
H          -0.11397211544358    0.84388231556755    2.39309909017003
H           0.61238516966873   -0.43240609076880    1.90241996718610
O          -1.73525447864153    1.40328020726798    1.99178539597922
H          -1.47819673938432    1.66716541142122    1.09493053130122
H          -2.39701652224167    0.71708400369137    1.87452649407560
O          -2.15789935089373   -0.99948311508635   -0.02203674848146
H          -2.33970227394179   -1.40323922147229   -0.87309777767404
H          -1.76114706861949   -0.12251676740822   -0.23845604115863
O           1.76431036964089    2.15588951603641    0.58683935322156
H           1.38685858156666    1.52561626957185    1.26689328001581
H           2.69958109027104    2.24034240373156    0.78195326882974
O          -0.05450837041138   -2.00334165659419    1.23445652919393
H          -0.88518336857854   -1.66342629507603    0.81573348506242
H          -0.32587809841669   -2.58548547814592    1.94583109765045
N           1.20344102874821   -1.77546703055720   -1.32264751107673
H           1.42957191404577   -2.63458816422164   -1.80463929358299
H           0.92059693386776   -1.98381453306127   -0.36626236600800
H           2.01395097521232   -1.17026656544113   -1.30803139963302
