    26
        -50.44747281  Gyration_radius:  2.62325039599 Dipole_moment: 1.038
 S          -1.15232369787651   -0.29478171175707    0.51867958111965
O          -2.18463813020705    0.08536122926282    1.43591669789536
O          -1.59938387426269   -0.94739187967462   -0.67764860719658
O          -0.34147215029999    0.98106419886116    0.11668323268901
O          -0.08850227424366   -1.13936187117909    1.20661142894166
H           0.48205906965714   -0.47226346487603    1.80092378289205
H          -0.84421328589302    1.37374803548226   -0.66990164982462
O           1.28389166941486    0.56096252467018    2.38708154593292
H           2.19154864770149    0.37731766466197    1.99752849524754
H           0.95673833930561    1.34329088132380    1.93159088792568
O          -3.75558515124761    1.79927512394464    0.11505077806856
H          -4.66030749850777    1.48229345360840    0.14064333878106
H          -3.24950551032406    1.22953057257134    0.72744589892306
O          -1.91305425858432    1.54423397447352   -1.79877754701995
H          -2.67219773555077    1.85084354973526   -1.25741957339878
H          -2.05987785919709    0.59758480082348   -1.92888350008480
O           3.50838294633540   -0.06453538019615    1.19909523388845
H           3.14266161785494   -0.80517882995094    0.64334863660338
H           4.20308220868104   -0.45197293612435    1.73390970771823
O           2.32213580595746   -2.02536624059928   -0.08517049001421
H           1.54610437688452   -2.16539497532518    0.46799005719966
H           1.95749094387494   -1.65945577484119   -0.92707022288809
N           0.92890663520701   -0.91505871419449   -2.11744829149231
H           0.91726447716129   -1.30952509119181   -3.04963657395903
H           1.07061668842043    0.08361017098752   -2.20571434883382
H           0.01017800954604   -1.05882933042625   -1.70482847919680
