    26
        -50.47097662  Gyration_radius:  2.50231492393 Dipole_moment: 4.578
 S          -0.77318175460217   -0.91427342510183   -0.44836267739211
O          -2.28214430449926   -1.06338235023783   -0.76655136505073
O          -0.05021506033364   -0.97466972893845   -1.71057036198004
O          -0.57858947830882    0.40961903949904    0.16451262785677
O          -0.38631594497676   -1.96363985182337    0.48125464300620
O           1.64251634766787   -0.75701024815214    1.61090440608826
H           1.19317447914010   -0.02713049228292    2.04548550410266
H           0.91538029999596   -1.34765823293102    1.30256045110678
O           2.21609750868833    2.33224203906701   -1.55294010444471
H           1.27208498327166    2.25632316499905   -1.85476742278423
H           2.21820645240703    3.00483508393568   -0.86988152120932
O          -0.31711063673034    1.82568494568141   -2.05401855375213
H          -0.39869865889998    1.09437454285769   -2.67348082065714
H          -0.49947229354954    1.41656670169403   -1.18226012822934
O          -1.81799458671822    0.54184153682873    2.47792488929963
H          -1.31658988138069    0.54945466207282    1.63147615495610
H          -2.39841622601503    1.30444059034268    2.45044335821629
O          -2.83409107111566   -1.81751943645939    1.63152508025236
H          -2.69652131972694   -1.36345998117484    0.09592976014737
H          -1.99821455176637   -2.30145573953775    1.56761631575538
H          -2.61533000218138   -1.00702210626450    2.13705047983142
N           2.33022957099904   -0.24220822150182   -0.90141930221975
H           2.41469273907028    0.78742895706318   -1.12766716877927
H           3.12610986365943   -0.76378233143884   -1.25398778053360
H           2.20703208368841   -0.38897483424973    0.14042588954772
H           1.42736142207743   -0.59062430396676   -1.34120234322897
