    26
        -50.45816395  Gyration_radius:  2.53811394558 Dipole_moment: 5.965
 S           1.28937004159152   -0.38589013854266   -0.64443906533241
O           1.91433887044398    0.06235604231663    0.61238353845706
O           2.11707926912970   -1.23006795355768   -1.44192582042243
O          -0.01919854055154   -1.00276693910465   -0.30766805479322
O           0.97619479433337    0.90462359573179   -1.46605590881311
H           0.08666451566273    1.23116064978316   -1.17067738600599
H           0.04668271534132   -1.59540803135536    1.29340839625472
O          -0.21752246196853   -1.44381890358032   -2.95556193416078
H          -0.33957796374213   -1.50880610518318   -1.99602272657187
H           0.74130824733124   -1.43631033608978   -3.05506768189779
O          -1.71580993644511    0.80583803396662   -3.25335826319935
H          -1.25155544879533   -0.05792834884299   -3.26530888194718
H          -1.16542886476030    1.40469228853085   -3.76094788021714
O           0.13590024716902    1.84419905303862    1.60848675157992
H          -0.53440644139076    1.92102707982995    0.91684682381277
H           0.87603996943030    1.33318405335783    1.22544308440004
O          -0.63054259843157    0.33414332606185    3.61077561688514
H          -0.44604996339361    1.00211331961981    2.89561629091318
H          -0.28360287440616    0.71228390824898    4.42021670255957
O          -1.46609027788809    1.22560581355623   -0.63674234529427
H          -1.32600168029370    0.29423127896921   -0.39411137878805
H          -1.81309920332129    1.19688290539999   -1.55773958415092
N           0.61351407167051   -1.48005655859510    2.16475895762985
H           1.39440425148753   -0.87973764674561    1.74784504279968
H           0.93648264048750   -2.36342011971593    2.54312067365043
H           0.08090664129176   -0.88813027711690    2.86672501265656
