    26
        -50.44703854  Gyration_radius:  2.5565639133 Dipole_moment: 5.717
 S          -1.10026683271620   -1.60350402525810   -1.55476044720775
O           0.27391554503819   -1.56519458579772   -1.07173924942698
O          -1.29710960672782   -2.26922718067236   -2.79075276723901
O          -1.97088244098071   -2.17803980887860   -0.43732832508813
O          -1.57863379802938   -0.13684766207245   -1.71380605598546
H          -1.61251479974696    0.31877415423782   -0.81265816669369
H          -1.36553455462150   -2.23855502566569    0.44789732987353
O           0.26468352920783    0.36356525954923    2.42989766914039
H           0.23886253247427    0.85402977370545    3.25288944501968
H           1.01610699605697    0.73851776639064    1.90605175307889
O           0.14515521225065    2.69885477998907   -1.03159423099672
H           0.66577886141040    1.94241781631105   -1.36948392073934
H          -0.42866314134368    2.96907742285525   -1.75017777003773
O          -1.49758412340365    1.16929233628625    0.48732255187917
H          -0.96263409565240    0.77728501409479    1.20197195448303
H          -0.94561360358602    1.87337752751476    0.09062285216197
O           1.67153044043319    0.52560571540759   -1.63703259895122
H           2.16092524061601    0.30879025525149   -2.43156463347957
H           1.13620333867206   -0.28274188658354   -1.42098689630669
O           2.06201693066899    1.56254472746651    0.88987857138854
H           1.65056993813431    2.39173574187018    0.62495033214395
H           2.14197230900470    1.05420148158852    0.06540375250648
N          -0.37514858519579   -2.31488862248251    1.50854160476470
H          -0.26350730537782   -1.42999013736620    1.99738905939871
H           0.45175152855455   -2.46394916016407    0.94173751811915
H          -0.48137951516267   -3.06513166745883    2.17733067823640
