    26
        -50.47113988  Gyration_radius:  2.4043454409 Dipole_moment: 6.892
 S           0.73359791558130    0.85007400962684   -0.89047532558620
O           1.08518513292541    0.00543162032124    0.27256778186662
O           0.83516132850632    0.06298198941373   -2.10886846418889
O          -0.59328374696254    1.41644540752536   -0.70082867739792
O           1.76626689368779    1.98663286334252   -0.97035182493268
H           1.38113730479792    2.72367482193540   -0.40230784083536
H          -1.92380792120352    0.35916746977210   -0.52781778728730
O           0.82881193462321    1.64188986665451    2.40585352558983
H           1.10387573903544    1.04606968666504    1.68583888644228
H           0.06471680290076    1.22299264818312    2.81145037695874
O          -2.41876605298802   -0.46804698255829   -0.33940827422028
H          -1.59959870012639   -1.41854896207575   -1.23058016293414
H          -2.15686167126982   -0.68674695752266    0.57634677233522
O          -0.88840366148733   -0.95292537858180    1.83110810072829
H          -0.17552850223854   -0.55389980614982    1.29260956558279
H          -0.59969561627834   -1.84913701754526    2.01533411671731
O           0.43156098086914    3.54784975363554    0.54707596179261
H           0.60361591497102    3.10183612285695    1.40166905943803
H          -0.33080734720671    3.08477623301609    0.16574451727420
O           1.08293066955878   -2.62373773906699   -0.02606752766586
H           1.18711548988059   -1.65271146224830    0.10698157333124
H           1.94514437920609   -2.94240559115907   -0.29685336859630
N          -0.81076955763818   -1.89825389300722   -1.79173635848362
H          -1.16108890091589   -2.42947302002990   -2.58087057731799
H          -0.22512720361822   -2.47316815805852   -1.15172850725998
H          -0.16538159457749   -1.10076752494861   -2.09468553134258
