    26
        -50.44897594  Gyration_radius:  2.55779505928 Dipole_moment: 5.446
 S           1.14813102589991   -1.12039658913776    0.49092338728514
O           1.21708747186577   -0.04609140845194   -0.47411273889340
O           1.11516988060241   -0.71373540151499    1.85649772376309
O          -0.10081723780057   -1.97845525413150    0.14973891306982
O           2.27956237006171   -2.10791919438793    0.23162207967724
H           2.23706615995094   -2.24391685023894   -0.79622647607664
H          -0.96108508697037   -1.47061266609684    0.34615287931314
O          -1.16545605006227    0.46174126746201   -1.74754678150572
H          -0.30706864858597    0.18835595140612   -1.38844072717965
H          -1.81347562348094    0.19636986377561   -1.08528860718323
O           0.30313889739000    2.60819984045036   -0.69376189902684
H           0.92770092145706    1.89018029415936   -0.52635095934056
H          -0.38748231628328    2.19880029203303   -1.23892418279998
O          -1.13966841024031    0.63364532878814    2.61454218320069
H          -0.26174058048858    0.21908246252398    2.58871299449180
H          -0.99407109349160    1.57976406237401    2.38935573400954
O          -0.71199814741970    3.12488826499161    1.73043743536220
H          -1.40812876827689    3.77088159768741    1.60510042434482
H          -0.28329764281793    3.00380757052437    0.85249108561595
O          -2.19966424811807   -0.63154894823036    0.68091966858471
H          -1.84749088167941   -0.07065475092294    1.45963870927087
H          -2.88832683093939   -1.18867205005612    1.04908883980004
N           1.89697492034666   -2.14042751310165   -2.29014336358207
H           1.68884481783132   -1.14804068703988   -2.32170101978079
H           1.05221610467486   -2.65477633264483   -2.50322429579687
H           2.60387901667270   -2.36046916021122   -2.97950100652163
