    26
        -50.44960288  Gyration_radius:  2.49532793613 Dipole_moment: 2.822
 S          -0.61643780067433    0.61417134293229   -1.31036270912530
O          -1.39521378036157    1.65175517301299   -0.68488871157426
O          -0.26139258911291    0.80245752363311   -2.67460027220008
O           0.64853327335447    0.39408370213507   -0.44100135335156
O          -1.35024118052843   -0.73670726493981   -1.18845594719668
H          -1.17999882439098   -1.16968771600302   -0.29149808319434
H           0.88076714316924    1.31721511891995   -0.03223627944386
O           0.12403418532845    2.21684489504264    2.97308461378945
H          -0.31068301173281    2.89978862635348    3.48597937796046
H          -0.58562022353544    1.59850535369288    2.67599024467894
O          -1.72315769814048    0.68339289751968    1.83264571466467
H          -1.40929825014901   -0.22491615128679    1.73764383928727
H          -1.75708788901341    1.06515228925173    0.93728747194216
O          -0.75309808398652   -1.87135773163618    1.01985414954334
H          -1.15848583321983   -2.73610785177652    1.11292621147215
H           0.20385957778066   -2.03267614523226    0.73380932710485
O           0.86459306865103    2.70786059863334    0.48747396442496
H           0.00228920570273    2.93700173628270    0.11557608727220
H           0.72154980797411    2.59705829949057    1.46387832820456
O           1.60855361600825   -2.20272360326884    0.04173350009096
H           1.42571367570860   -2.12945155682862   -0.93567024856593
H           2.04781847114151   -1.37882263470686    0.26753217615427
N           1.06767351640562   -1.81324176001192   -2.56823455861769
H           0.34878174340973   -2.43683029457449   -2.91524759725324
H           1.85921526195593   -1.88395862082690   -3.19686780816405
H           0.69733261824042   -0.86880621578048   -2.64635144791745
