    26
        -50.44643126  Gyration_radius:  2.60670914311 Dipole_moment: 2.855
 S          -1.01503374147527   -1.60316963169253   -0.38142528088828
O          -1.87005781436143   -1.20713887766712    0.71172010763473
O          -1.59106717804859   -1.52259939030369   -1.68277677077033
O           0.28144240240781   -0.76948425091227   -0.30421898938360
O          -0.47885581301556   -3.02420433955642   -0.13816509488282
H           0.18965525068946   -2.94773181931369    0.61056678120930
H           0.08100675341954    0.23238682890927   -0.55415380973932
O           0.41732902620732    1.77636034848759    1.87513720632208
H          -0.26993713135697    1.87865719410295    1.20860756999539
H           0.24655241347383    0.91816494264685    2.29438896698453
O          -0.17563431092496    1.58653058439492   -0.96994351450062
H           0.72741209181432    1.96480741990875   -0.91643074877475
H          -0.39908463610779    1.42247715169025   -1.92953182588233
O          -0.44497891985764   -0.70508635188847    2.80422497014185
H          -1.05483165901093   -0.85651987033990    2.03458905511777
H          -0.97401382508553   -0.82401498351744    3.59509465166149
O           2.22288914599149    2.40001395982762   -0.05515860328195
H           1.77250870266123    2.12437693505609    0.76949256526956
H           2.48002512399746    3.31371327449412    0.07724204445962
O           1.23795632224615   -2.48746311608379    1.70199622945931
H           0.72025133883522   -1.87428408312512    2.26537533584449
H           1.82211681056031   -1.92818398745870    1.18121415818724
N          -0.87484820127627    0.70907358504422   -3.36398069330760
H          -1.20906092320519   -0.15079916950645   -2.92564038920051
H          -0.18292478435897    0.44984732910444   -4.05639246511960
H          -1.65881640422901    1.12427031771515   -3.85183146654100
