    26
        -50.45683227  Gyration_radius:  2.43357520504 Dipole_moment: 3.396
 S           0.35830718191307    1.19742980160836   -1.35264202508723
O          -0.76931011409270    0.99910160594479   -0.46949113736262
O           0.05644112714405    1.42204520660506   -2.71894070504968
O           1.18031146181538    2.38612317695550   -0.78756860766158
O           1.30842296653148   -0.00524515254269   -1.24990282509735
H           1.51582016129929   -0.29065031255278   -0.28302939274714
H           1.24124516124340    2.27620504649732    0.19924907946493
O          -1.81779499065860   -1.48520924005739   -0.44139389657549
H          -1.71078442931683   -0.52101604226076   -0.47334346149776
H          -1.41705991466991   -1.77177505621816   -1.29069739944793
O           1.26676385425289    2.00274200200655    1.80547492697972
H           0.33576100813618    1.70154576186683    2.04918544053657
H           1.43009017021495    2.81468696128298    2.28849433421116
O          -1.10673560727410    1.06179583031352    2.19322161525912
H          -1.03441919250827    0.10367017199399    2.33610075922438
H          -1.29293687316424    1.14915289265508    1.24277205132210
O           1.76908530943088   -0.62846660494196    1.15096671701448
H           1.81477559337891    0.23486265221479    1.58696320731313
H           0.94386730982493   -1.06323924812054    1.46549838690471
O          -0.59898190540582   -1.65157971421621    1.85566245473495
H          -0.73442654687057   -2.51347976099263    2.25076378603000
H          -1.07739641833797   -1.66702897712930    0.97628815911970
N          -0.57125944529047   -1.51599929024691   -2.86272052640970
H           0.38219723076834   -1.85113500960496   -2.79180007628888
H          -0.51115395477111   -0.50551503446338   -2.95410228693941
H          -0.96082916365731   -1.87902166655043   -3.72500857795217
