    26
        -50.44230488  Gyration_radius:  2.53846033283 Dipole_moment: 6.061
 S          -0.39210984147220    1.68434906000901   -1.88150768587271
O           0.63326579579011    0.75208631317452   -2.24784941033717
O          -1.06650656867109    2.39059127707267   -2.90653558364117
O          -1.43386489331383    0.91153465462334   -0.98785602661486
O           0.15789896248046    2.70166114687636   -0.85082304759311
H           0.66847996222380    2.20488079532131   -0.14979056716961
H          -1.36773753045421   -0.09073513458607   -1.12389384417564
O          -2.71878468236683    0.10178178232291    1.29081476323508
H          -2.42121223346290    0.57513757125084    0.49653227738011
H          -3.34514235398489    0.67161130540899    1.73935047246142
O          -0.13644567277101   -0.31821170807046    2.17751186696823
H           0.14215834971195   -1.13534398474676    1.73241833184745
H          -1.07898683918648   -0.20635296042440    1.96275676143152
O          -1.50072399868327   -1.63233362451227   -0.91856101241325
H          -2.20677921283935   -1.68226819497342   -0.26640361708541
H          -0.68463315228431   -1.93811083340036   -0.45755432506579
O           1.38822985128261    1.51245153955696    1.09434233849735
H           0.80300388407713    0.81645875863086    1.50903777721826
H           1.51983279124996    2.18260470295629    1.76760584886629
O           0.65247118216974   -2.34531337718157    0.48816691767308
H           1.36720016357400   -1.75974356946368    0.05381220250006
H           0.97812499862523   -3.24529431437812    0.46149243418394
N           2.38039981835124   -0.75325045540076   -0.62254746089645
H           1.80549312062418   -0.29613693202875   -1.33332641122171
H           3.22956966976146   -1.07183689802152   -1.07138240336449
H           2.62679841962252   -0.03021688996111    0.04418942312458
