    26
        -50.46439124  Gyration_radius:  2.39564238511 Dipole_moment: 3.900
 S          -0.15666006351869   -1.72451030489582    0.50425670787030
O          -0.22975389338464   -1.24792497556679   -0.89392698591791
O           0.68908825702233   -2.89110282568083    0.59506931303028
O           0.30338020377637   -0.64860177429090    1.38091709209120
O          -1.60795337611649   -2.08347247898140    0.92531627499967
H          -2.13144969823803   -1.25260248494102    0.78216299245582
H           1.71032852053422    0.17672653067086    0.93803976643629
O          -1.36967764113920    0.99542610473114   -1.66911962427201
H          -0.96401253076039    0.11925239208148   -1.49395267034194
H          -2.17073349403524    0.98865382113938   -1.13328735257298
O          -2.86708229866571    0.22512784371773    0.65229751253252
H          -3.62550644687117    0.22038945495004    1.23906804347496
H          -2.19551906913756    0.84261814240161    1.06874123419443
O           2.38622974652056    0.59178045835379    0.35623565288863
H           1.90147929555170    1.33137156726866   -0.05438238430852
H           2.54278247683517   -0.66708552971910   -0.52959659443140
O           0.54716796706578    2.43299147012768   -0.57868825283623
H          -0.15931987121882    1.91504943128735   -1.04973542753643
H           0.64914015670379    3.25303948265895   -1.06278541038920
O          -0.94867620281674    1.65174329935524    1.68239865599893
H          -0.43389067635067    0.82335268518006    1.77539562959484
H          -0.45722302495670    2.15962496422440    1.01851747307976
N           2.28148211192882   -1.58897810436513   -1.03119565685380
H           2.93693642868095   -1.88892140255976   -1.74487796277530
H           1.28976127776132   -1.41725353000107   -1.36745064160990
H           2.07968186483482   -2.31669421713076   -0.30941739481649
