    26
        -50.45945769  Gyration_radius:  2.45033696223 Dipole_moment: 4.608
 S          -0.05743605427769   -0.69352630984805   -1.26593282033564
O          -0.28275937358325    0.68279874968769   -0.79802898705957
O           0.65103689386801   -0.69907323095689   -2.54060695147767
O           0.69866573804525   -1.44898744516330   -0.26496559763161
O          -1.42813712488540   -1.37011374242658   -1.43820450032588
H          -2.15254213561390   -0.69279306704227   -1.21858545453968
H           2.37245911776856   -1.15907203973343   -0.62742214924684
O           2.15738297670904    1.80199829687982   -0.51752348117957
H           2.05737973599966    1.92762546245169    0.43457455156203
H           1.25510474142431    1.57481844492047   -0.82029523896616
O          -2.83946088266404   -0.15007344044750    1.86237616998250
H          -3.48998769887770   -0.79127790634517    2.15104591925993
H          -1.95733498224738   -0.58433529522789    1.98785888824455
O          -0.41945024951521   -1.19779677832879    2.14604564327576
H          -0.06209581987441   -1.46795560512385    1.27800688014204
H           0.04901876083353   -0.37260507660250    2.34667729756261
O           0.34727628732067    1.42514804978462    1.69979981949429
H           0.04648059160491    1.12389784489084    0.81643764454467
H          -0.39504535564509    1.89892173187070    2.08024656289958
O          -2.96769184406508    0.51591410210579   -0.71367383436203
H          -3.04703538963438    0.32004491351592    0.25068238176802
H          -2.19065011300053    1.08624882170003   -0.79399152056388
N           2.87461883516170   -0.58583465405244   -1.34011212543368
H           2.86443033079562    0.41650495173657   -0.99710795926733
H           2.12577211942749   -0.62505245294051   -2.11611126907863
H           3.79000090505929   -0.93542431531019   -1.60118987944014
