    26
        -50.44089590  Gyration_radius:  2.67661641453 Dipole_moment: 7.597
 S           1.76129166731613    2.30168174814823   -0.80769037450340
O           0.31994072791826    2.31382971907261   -0.78768925507703
O           2.41685919391567    3.49776728246362   -1.17953349394325
O           2.24473169806947    1.79525359221718    0.59056496969541
O           2.23668242287673    1.14559866106951   -1.72408460691907
H           1.89604140958870    0.31627850774110   -1.29470892501316
H           1.50798272186063    1.88691397198598    1.26099870604354
O          -0.86426557512575   -1.89914085112651   -1.82287071212715
H           0.07343560361607   -1.77140767265800   -1.64541192187621
H          -1.25231598342549   -1.01258549633445   -1.80193233814662
O          -1.71209505773079    0.73284604422251   -1.20108687954420
H          -0.94402555604897    1.34700090778841   -1.14744795524076
H          -2.47613647219816    1.28452118014934   -1.37430689974504
O           0.36921028755456    1.73500503974831    2.36970914969490
H          -0.15514728667754    0.99970813843486    1.98993015168803
H           0.71688814974834    1.42734412564613    3.20940751800266
O           1.42038439480275   -0.88345051876374   -0.32229113119325
H           2.16177139671399   -0.97404661266123    0.27917966351631
H           0.62662658498501   -0.65756163171208    0.23767592277754
O          -0.74121747752955   -0.34688731185690    1.09486841820697
H          -1.13123800483836   -1.26428517097614    1.14818420883363
H          -1.23114694916541    0.08166624898886    0.36635527223723
N          -1.72834628175184   -2.78922088996322    0.77578824758157
H          -1.25827982720672   -3.61355944990121    1.12735380244469
H          -1.53326594839978   -2.72243215466069   -0.22708165116775
H          -2.72436583895551   -2.93083739707156    0.88612011375225
