    26
        -50.46254246  Gyration_radius:  2.39836437848 Dipole_moment: 9.372
 S          -0.53493672537807   -1.66026905770134    0.81243675500585
O          -0.93884214424895   -1.05767000918166   -0.45594229496037
O          -1.54916168826873   -2.40715043855312    1.47381242586090
O           0.66808834273969   -2.61477770541320    0.45219084547508
O           0.06837037555725   -0.61770763430642    1.68642050069905
H           1.11998314860145    0.15635641225068    1.11902211308238
H           1.21082451297198   -2.12191824461568   -0.19042449498324
O           0.28839099890130    0.24015255816833   -2.36239594224397
H           0.22444294256048    1.13457145694369   -1.99749239153090
H          -0.34101967368829   -0.27783807038362   -1.81689446510384
O          -3.31048616061305   -0.37012103305231    0.54289226645321
H          -3.33351712339376   -1.05758237220495    1.21607216606291
H          -2.59577929470230   -0.65794986437167   -0.05069197860753
O           0.09076224460128    2.40388063310375   -0.56972310107865
H          -0.61674696328418    2.06632916401653    0.06665842680662
H          -0.02635836963613    3.35390710977658   -0.60665573862018
O           2.19470233318952   -1.13914577919212   -1.29034290172613
H           2.62919729122914   -1.72306208680678   -1.91358548213599
H           1.49731947725375   -0.63265626697877   -1.81123795116897
O          -1.51184730875684    1.50946687605838    1.25079794861331
H          -0.97433738624142    0.77263463836700    1.59674491193568
H          -2.34333270975313    1.07261894270338    0.97478805914323
N           1.87761609548791    0.77781357603958    0.59727082025001
H           2.32871904018441    0.15946946338429   -0.09123640855945
H           2.54505922442091    1.16178734377889    1.25649898922324
H           1.33288953031779    1.52886041819054    0.11101693202871
