    26
        -50.45690553  Gyration_radius:  2.43567005453 Dipole_moment: 5.209
 S          -0.45665775315679    1.79680463951968    0.08974133071364
O          -0.25565555153125    0.75122374024290    1.08327072102038
O           0.65191633595006    2.68619299559841   -0.02171127426184
O          -0.80293185154833    1.13271029705866   -1.24126303976431
O          -1.73630694649488    2.56586841461484    0.42015823323359
H          -2.50321744596449    1.94774600297898    0.17136327418934
H          -0.05620300120446    0.40505424249350   -1.57036721478303
O           1.43740656315958   -1.12826211498683    1.82472383829101
H           0.88592773329268   -0.35065766068938    1.58977601906202
H           1.19212410031216   -1.35691861724996    2.72343509053046
O           0.32971978952138   -2.55138554975210   -0.15713313325300
H           0.76173591033692   -3.39708362049271   -0.28488714038245
H           0.77740480561424   -2.11245634720963    0.60398198322211
O           0.90364938549617   -0.52648536794554   -1.85640578741633
H           1.69672357360990   -0.11914353069016   -1.37929940524871
H           0.65205892258559   -1.32093556401872   -1.33882711576825
O          -3.44470697630366    0.84652338565040   -0.38714975318363
H          -3.16596344639905    0.81197315817855   -1.30712642268620
H          -3.11355067011934    0.01370858424147    0.02356696321039
O          -2.05392310761437   -1.16692118193808    0.66387054923951
H          -1.41199946227448   -0.49247237358966    0.95687429971570
H          -1.52649413528667   -1.83099923147764    0.20395019534707
N           2.69143379673669    0.68928634029222   -0.38743806343524
H           2.12766796462793    1.51676346272519   -0.19548646405528
H           3.59838726136772    0.99703538838583   -0.71378818965594
H           2.82145420528135    0.19283050805248    0.48617050612455
