    26
        -50.44089421  Gyration_radius:  2.75586659957 Dipole_moment: 5.125
 S           1.33396734638873   -1.92176376943040   -1.63071718321856
O           1.80901832284834   -1.42213629966003   -0.36152316551172
O           2.01356683575754   -3.03388562435900   -2.17570322950632
O          -0.20087304012396   -2.24189647803821   -1.46737100089105
O           1.31965697526748   -0.76220311383413   -2.64699326789023
H           0.41870246198788   -0.29114018398865   -2.65445507510716
H          -0.47002631397669   -2.00920396408771   -0.55665291686445
O          -1.15418078301979   -0.39632812224494    3.36187965353955
H          -1.34743934634780    0.52921203965213    3.09472787207685
H          -1.96000200222952   -0.73372977101028    3.75557258715242
O          -1.67216562964568    2.05612769143029    2.35434423437429
H          -1.47753511471866    1.87299982804537    1.41088466368698
H          -1.15549292852895    2.82601207360378    2.59540979342796
O          -0.98985431242102    0.31508323965143   -2.55532287593996
H          -1.03852240289629    0.76152930694412   -1.66998977888614
H          -1.58922934322547   -0.43494982063809   -2.52478803144511
O          -0.81801986144931    1.20176709651580   -0.07572388994731
H          -0.78936842935564    0.29749550232425    0.30816208600530
H           0.13951850003703    1.45725302242044   -0.16878667276446
O          -0.46189207468819   -1.25047189266721    0.95096974083264
H           0.50781746653871   -1.28344015893360    0.88930053616861
H          -0.69163641172963   -1.08617083739380    1.89847647547873
N           1.80594311925806    1.44973941828702   -0.45997993146142
H           2.00037496259859    1.71111029434983   -1.41918574224279
H           2.00066492366259    0.45120798035272   -0.38404212776961
H           2.46700706993158    1.93778251266377    0.13150725656878
