    26
        -50.44540941  Gyration_radius:  2.55193002634 Dipole_moment: 7.495
 S           2.11812439876933    0.36245213679079   -0.26858348826594
O           0.93798961603213    1.08923406327321    0.18533408559294
O           3.32995427945904    1.09286628838130   -0.21218262646526
O           2.19044643286491   -0.95927505515117    0.54101155584735
O           1.85031374277871   -0.15766973547005   -1.67581909741058
H           1.02897117541869   -0.78270061825009   -1.60341584569126
H           2.33074381178644   -0.79376103208998    1.52149426768058
O          -1.58956818197792    1.63743607986494   -0.28413106632141
H          -0.61605817664715    1.50528336210885   -0.23228530693125
H          -1.78236420666295    2.34488498541181    0.33479221719637
O          -0.24307943609068   -1.53651299649538   -1.48425245657738
H          -0.62373754320826   -1.43074432524933   -0.59456987788997
H          -0.81788731755048   -0.99512759266922   -2.08624646705812
O          -1.80212504107292   -0.86657561581294    0.71470967455854
H          -1.85034240339677    0.04263913220448    0.34435238937889
H          -2.67547484392438   -1.25146302874279    0.62888901396659
O           2.24337574198030   -0.61790982111062    3.08967148605661
H           2.14454315190293   -1.46595949095610    3.52753729591521
H           1.35498634867255   -0.18162489948224    3.10230557828839
O          -0.11520797474055    0.43440186894014    2.56276681730617
H          -0.73137298467062   -0.22235608942717    2.20995720737257
H           0.28473910045331    0.83748236361210    1.76830067796437
N          -1.65357915234736    0.24478866689754   -2.91839619105132
H          -2.51024135841334    0.09954078002107   -3.43682871300614
H          -0.96986861985596    0.64554434002240   -3.54810518690135
H          -1.83328055952187    0.92512621337438   -2.18630595354864
