    26
        -50.46800645  Gyration_radius:  2.46392308637 Dipole_moment: 6.694
 S           1.05956390774572   -0.29481762384035    0.50629749509019
O          -0.00284268319658   -1.15685953817112    1.00612057555260
O           1.38727365702927   -0.64558886721883   -0.88183197442486
O           0.69522771786352    1.11493317147451    0.60175758158715
O           2.33827784483660   -0.53587906060976    1.33060443407885
H           2.20630076880519    0.04366202240530    2.13798667084810
H          -0.62325893673662    1.75766020401331   -0.24743560613958
O          -1.32341390121692    1.80755449571790   -0.93675585068526
H          -0.49279222991135    1.36131700521203   -2.05072926520020
H          -1.86639620554926    0.99623927262706   -0.76807422882584
O          -2.13567279565423   -0.65786657538619   -0.51487422354280
H          -1.46239097430570   -0.88020430745706    0.15905161734188
H          -1.85710706738128   -1.15729294202510   -1.29738960837110
O          -0.59884934694773   -0.42102623676465    3.48389942316933
H          -0.40931814645538   -0.81474287611081    2.60678047364383
H          -1.51885753754586   -0.15198547106418    3.46252497324254
O           1.58130511666515    1.11619057357840    3.13342288904272
H           1.19562974516031    1.57232350803243    2.36961651384308
H           0.84111704040225    0.61893363908772    3.53676668071317
O          -0.45502453259828   -1.90804410790278   -2.35882578724304
H           0.25730774170795   -1.61762713764415   -1.75091514156529
H          -0.47085365112308   -2.86491602247054   -2.31062551357074
N           0.24243446157308    0.83111474431560   -2.69621137454749
H           0.76787222368472    1.45505524312101   -3.29825340118592
H          -0.22503836603160    0.09744340317107   -3.22928359404393
H           0.86950612916570    0.33442348391073   -1.99362377882196
