    26
        -50.45027477  Gyration_radius:  2.4949203301 Dipole_moment: 5.774
 S          -0.63245555128469    0.46635059212986   -2.37291851539579
O          -0.44065729301502   -0.56564913877726   -1.36119970058719
O          -1.12546621239836    0.01319183400548   -3.61910288760767
O          -1.54097483384803    1.55544926381817   -1.78209385158251
O           0.72465341368489    1.16924825669296   -2.57693184581019
H           1.13649691146613    1.30978898645513   -1.67488371670186
H          -1.79294817046484    1.42157015291432   -0.80005695878884
O           0.19457669968521    1.56381468419772    1.98467101250248
H           0.38197556628620    2.01097701695037    2.81040299527061
H           0.33887767756379    0.58741891222084    2.14120632749457
O          -2.14075251610409    1.20728917387508    0.65943092878292
H          -1.36067630906144    1.49596210852248    1.17075666334617
H          -2.20022044952728    0.24418353668270    0.79409662532027
O          -1.80370953269877   -1.51231121561274    0.66326283140407
H          -2.44662361567722   -2.16302591714031    0.37852557803146
H          -1.29690611793256   -1.24686495724472   -0.13859159097277
O           1.75345831433581    1.32013432519018   -0.21843128725852
H           1.97666232527876    0.40041146507908   -0.02867870936706
H           1.17003373732323    1.60521261994844    0.51037537470746
O           0.53081956772710   -1.02077206146512    2.11398231185792
H          -0.33343992499377   -1.33922723492004    1.81176373397259
H           1.15504903110702   -1.26175150002588    1.40309349823520
N           1.94036087832659   -1.67381516666299   -0.21839434757623
H           1.13249183598560   -1.42372770128165   -0.79166932613108
H           1.90913716206697   -2.67909446844999   -0.08872122634184
H           2.77023741472641   -1.48476356533156   -0.76989390743827
