    26
        -50.46708049  Gyration_radius:  2.46963694773 Dipole_moment: 4.698
 S           0.70977395571006    0.71674136745605   -0.55705379505899
O           1.23104102703670   -0.39009552323798   -1.35613094759347
O           1.72645930510208    1.28580669251532    0.31671643843040
O          -0.00711005651291    1.69114701072033   -1.34355144051459
O          -0.31451004638312    0.05965970620803    0.45316862010169
O          -0.72900962442122   -0.33937686216445   -3.13065048679189
H          -0.74274677021681    0.61166302130788   -3.27271385197997
H           0.08887993348551   -0.48726173063418   -2.61480529150814
O           1.46957395277025   -2.41180063321902    0.25281706120629
H           0.57214928942104   -2.74581063100068    0.31781101188771
H           1.44632176714365   -1.72328494145346   -0.45970869279500
O          -0.19857892932884   -0.02587991196580    3.17593755274117
H          -0.45983723424402   -0.00729704453633    2.23703321176799
H          -0.45563160182600    0.82217241844455    3.54196109089431
O          -2.59337730418995    2.10089390796460   -0.94940986264405
H          -1.61684688544096    2.05735951874353   -1.04265686520449
H          -2.89179895555076    2.76443459743191   -1.57292163502120
O          -2.27662434498062   -0.58094429413804   -0.98460344512777
H          -1.83935177432591   -0.63494518399327   -1.86921784176871
H          -1.13165684603359   -0.24807556448776   -0.09721924174487
H          -2.71107983351608    0.29301147771352   -0.96487028919623
N           2.17170867759081   -0.57252440843523    2.01385916452811
H           3.08825709807995   -0.61928723893055    2.44491595352369
H           1.96291378238069   -1.43251606873317    1.43266617734525
H           1.41006547309406   -0.44029156192307    2.70981917589667
H           2.09101595513016    0.25650189032765    1.31880822863463
