    26
        -50.45161263  Gyration_radius:  2.59169961842 Dipole_moment: 5.322
 S           2.00137963701709    0.38808996419414   -0.71094226232944
O           0.75807692499519    0.17704809003005   -1.43699175083890
O           3.06487561919471    0.95393899873358   -1.44949556372114
O           1.67556112486338    1.28603194438274    0.50315266911755
O           2.43254979174746   -0.95777602452561   -0.10614048236248
H           1.64422506744284   -1.38145604923355    0.37301685015420
H           0.79973219531815    0.99547288465700    0.93995950449505
O           0.22348342903970   -2.02543669632003   -2.79112869101503
H          -0.02972135710268   -1.75647470686861   -3.67587188426441
H           0.54871872527373   -1.21486344789362   -2.34379223876877
O          -1.46549116689307   -2.52743903112218   -0.80828099360472
H          -1.72951425644748   -3.44821015493903   -0.78393880635518
H          -0.87369402357741   -2.42459405183326   -1.59238706732948
O           0.36777939729574   -1.85654217999647    1.08979111425357
H          -0.00015053801464   -1.08392304764622    1.54462263239644
H          -0.30603182569377   -2.13343966691965    0.43337676341888
O          -0.55053737632467    0.67523791544572    1.58489325204106
H          -0.70056575233589    1.57350048435950    1.96408621778600
H          -1.16468881983417    0.59558529695655    0.80718028209531
O          -1.82514346578016    0.27021299641510   -0.67194288613768
H          -2.02338326933560   -0.67572021933913   -0.70392769042909
H          -0.96836551848304    0.36149583703446   -1.12708122337229
N          -0.53842344143400    3.29113459985761    2.23045607684114
H          -1.19908495586360    3.85691191375434    1.71243099014941
H           0.38160937217415    3.44053594452170    1.83172612106826
H          -0.52319552727561    3.62067840622570    3.18722905676908
