    26
        -50.47250014  Gyration_radius:  2.41009328723 Dipole_moment: 3.186
 S          -0.87312256472264   -1.09410098684605   -0.22982558510483
O          -0.45927957816969   -0.44069163017316    1.01296574009555
O          -1.31594609844424   -0.14461417694282   -1.22512725156371
O           0.22335406805613   -1.93900113305966   -0.71636660101226
O          -2.08586898324686   -2.01280322644323    0.09771023719964
H          -1.70906589011652   -2.64738638694136    0.73973357196977
H           1.48505662753844   -1.00870812165307   -0.99071988423969
O           0.58850524211734    1.68537791166498   -1.77881873510564
H           0.41142665494671    2.12264486769227   -0.91158681983826
H          -0.18474803137615    1.10346098293027   -1.89073256825328
O           2.02149045540392    0.36649090168632    1.58509381623076
H           1.87066728533804    1.30705135675105    1.72231882664406
H           1.12263552728772   -0.02124309552469    1.53994181013388
O          -2.71209386994277    1.98748492041141   -0.30789079870388
H          -2.28699230372999    1.17903159829239   -0.64927292736955
H          -3.55882383197111    2.05234226658430   -0.75099787212036
O          -0.27372620908958   -3.19884647138303    1.59776317139106
H          -0.10682279580617   -2.44247491073939    2.16851301528159
H           0.19494918247664   -3.01270354878856    0.76761315477200
O          -0.16864187048470    2.24590736225265    0.71468570100763
H          -0.35517217408448    1.30719103962227    0.90521636287237
H          -1.04420490356097    2.61448494256910    0.53764156341325
N           2.17824093973781   -0.21097015496704   -1.00135605321644
H           1.64948207918692    0.62670004432898   -1.43332814412652
H           3.02146264020797   -0.45027222257797   -1.51091224928456
H           2.36723837247043    0.02564788124077    0.00773853893904
