    26
        -50.44589624  Gyration_radius:  2.51122621736 Dipole_moment: 8.176
 S          -0.22054414532785   -1.92143227132608   -1.05901784403962
O          -0.68886801994324   -0.54828913871391   -1.04843711189327
O          -0.19606158004619   -2.52888241492839   -2.34308297475103
O           1.21990784158381   -1.90654094054058   -0.44759384202608
O          -1.01509992907159   -2.74361567765200   -0.05935349452934
H          -1.11195557133766   -2.20087981636452    0.82885226994883
H           1.71454664199920   -1.21409850374786   -1.04659481830818
O           1.32659201393945    2.13312262138014   -0.07047885650346
H           0.35463665879124    2.13469783802508   -0.18212006938660
H           1.55155167003861    2.91851191762952    0.43121031282059
O           1.20403281363983   -0.10065984028408    1.65220206004419
H           1.27443177750274    0.68072817088671    1.08009044097008
H           1.45174954773303   -0.84966244758196    1.09275663310577
O          -2.72981500336360    0.85940044405917    1.85289992420379
H          -2.54975572298988    1.39523583330781    2.62721836235884
H          -2.29187394755385    1.29292361065203    1.09747164334321
O          -1.36401966688458    1.82988677823558   -0.32548948298544
H          -1.14209801577560    0.89708032839586   -0.57173746261606
H          -1.90715798385666    2.15803720412559   -1.04467095467566
O          -1.16172028237372   -1.34358118642162    2.01576358779418
H          -1.86292901581613   -0.66303890876297    1.93468595838033
H          -0.31060423077440   -0.85390837632720    2.02914320836700
N           2.09952255316444   -0.05812736925830   -1.95498924845919
H           1.98000566755979    0.80167085118972   -1.42679789690683
H           1.37146784147281   -0.11474937498192   -2.65537569877838
H           3.00405808768098   -0.05382935099834   -2.40655465548076
