    26
        -50.44900192  Gyration_radius:  2.39878776684 Dipole_moment: 7.959
 S          -0.12963674427782   -0.57808864970775   -1.88782462154695
O          -0.27418210757314    0.16603750282335   -0.63432039958696
O          -0.33966311595235    0.25400381584296   -3.03565089352978
O           1.39420931847826   -1.06761304097889   -1.90134306689119
O          -0.90746314924466   -1.80905005353391   -1.80418616506082
H          -0.82944786402843   -2.14720223844211   -0.40834636024897
H           1.87347621692961   -0.21980737732561   -2.04749724098438
O           1.66335732188522    1.52510963485740    0.97919996410867
H           2.19517770385737    2.00813212728720    1.61393925025736
H           0.73011341024565    1.76120091314906    1.13174298544043
O          -0.69683229528555   -2.25913005196779    0.63139650636307
H           0.24983632295548   -1.88957663658564    0.80205500950768
H          -1.36627064214874   -1.58266409740528    1.09091538439342
O          -1.07712391641589    1.97525351805591    0.98511925221659
H          -1.42517844287690    2.73419407191506    0.51400579867124
H          -0.85582876983109    1.30569097345690    0.29003037008583
O           1.89744768776205    1.48513471978502   -1.95067858954863
H           1.04052462795595    1.45162539302865   -2.40197359134171
H           1.72462323585177    1.59471866302006   -1.00330621288324
O           1.65014543083086   -1.27247032598695    0.80590282382847
H           1.81229270221774   -1.37600464762401   -0.14700873085956
H           1.60744970881827   -0.30703257386579    0.93933017812502
N          -2.31954299586208   -0.62059747122255    1.76115573350444
H          -2.49486500603186   -0.80870552313905    2.73985733925431
H          -3.20164769071895   -0.63506157065137    1.26546184307050
H          -1.92097095754693    0.31190292522023    1.67202343365853
