    26
        -50.47250033  Gyration_radius:  2.41000136556 Dipole_moment: 3.176
 S          -0.51577289720189   -0.60439596885791    1.17479634504894
O           0.83786237153535   -0.15987021516794    0.83883233124233
O          -1.50789965031605    0.40971616319655    0.90004431202721
O          -0.79652200774108   -1.86183892337273    0.47279878436722
O          -0.55787427078180   -0.88263334100353    2.70554741414210
H           0.10189411426248   -1.59669156837367    2.81340659154889
H          -0.69093062805584   -1.59254197882291   -1.09195701038605
O           0.83206844181225    2.11213441010023   -0.65498152137539
H           0.89747148971687    1.35902201713287   -0.03790185182302
H           0.48498821615445    2.82343171279920   -0.10063669361645
O          -0.77537744276831    2.96697964908173    1.41108576829163
H          -1.07248053376644    2.04394438606934    1.30819970740584
H          -1.39178541018546    3.38092975134233    2.01600655251992
O           2.03933427830837   -0.50699594748496   -1.52195857969390
H           2.20875220961379    0.40844514834269   -1.76598140413908
H           1.75455944172974   -0.46172737997279   -0.58547844097553
O           1.22752588986412   -2.69535935901881    2.02158698722300
H           1.87849717581168   -2.06990354225438    1.68875623830139
H           0.54864585093561   -2.76371425473735    1.33032381606873
O          -1.45036705545847    1.19301479473624   -1.68113982898229
H          -1.78669116251909    1.00829329734779   -0.78562359751479
H          -0.61725592490128    1.69233288810442   -1.50476468424289
N          -0.47476327918031   -1.18300105596735   -2.04203167844802
H          -0.78879290315318   -1.78659006837801   -2.79369716281841
H           0.56593021689141   -1.02002542364464   -2.06051505334567
H          -0.95101653061020   -0.21295519115259   -2.05471734081809
