    26
        -50.46501231  Gyration_radius:  2.67156783033 Dipole_moment: 6.272
 S           1.00255855899669    0.60330165313905    0.19472929964630
O           1.27001809275770   -0.80808408340117   -0.11664829970279
O           0.36103552582681    0.73333042665290    1.49963014538424
O           2.16054081349740    1.43819563586733    0.03145949937141
O          -0.07279731563367    1.02801639412771   -0.87399126613280
O          -1.36260673388964   -3.15581667168244   -1.71402763022767
H          -1.10031255634412   -3.94431371273982   -2.19132479405259
H          -0.85063141537015   -2.40885720930625   -2.12246086524752
O          -1.78545758603507   -0.61587787298627    2.04018280754561
H          -1.01121989843250   -0.03076368385849    1.83009330149218
H          -1.98092129035356   -0.47194826698962    2.96712979748729
O           1.88505747744041    4.05126627294249    0.27103829376192
H           2.25299456395793    4.42860226359783   -0.52958471998824
H           2.11933781915514    3.09671999995267    0.25035533664552
O           0.20393538122818   -1.20093631014518   -2.53343686200591
H          -0.24147929767686   -0.35561034101084   -2.64045788067712
H           0.74820720086531   -1.07959492170411   -1.72885432140628
O          -0.59620002333600    3.08769689741509    0.56068285016312
H           0.19728488914929    3.65744968530113    0.46757358567082
H          -0.39809680273323    1.88723265463054   -0.48577162968845
H          -0.38649339829246    2.48542445796635    1.28947650650216
N          -0.49074419932995   -2.51403631595581    0.72127286463961
H           0.29131370471945   -1.84127977138076    0.42364270966929
H          -0.93980419296817   -2.86411046859010   -0.16492417402047
H          -0.11567648477448   -3.27656265190879    1.27456254859448
H          -1.15984283242161   -1.92944406992176    1.27965291658054
