    26
        -50.45167516  Gyration_radius:  2.47541758142 Dipole_moment: 5.333
 S          -1.56571780364219    1.17770009344786   -0.92251443304383
O          -0.29151589816117    1.26354769151142   -0.24015250496851
O          -2.63070937427291    1.88072671822540   -0.29602555073255
O          -1.38491255398015    1.66904358639262   -2.37321724930421
O          -1.92486879071545   -0.30855783206324   -1.10038637013150
H          -1.29996373544896   -0.96227547086094   -0.57740120467999
H          -0.68909339102009    1.06100161818827   -2.74001590500810
O          -1.32448721495208    1.49014689242808    2.21127479357778
H          -0.85322617457692    1.58780862099776    1.36492752385214
H          -2.23771636964951    1.69295862643261    1.98848822402863
O          -0.19141370017494   -0.90469193587719    2.60790846729736
H          -0.70697898698397   -1.40251212078356    3.24448343808904
H          -0.60972086510438   -0.01575759716610    2.54859122560243
O           1.96068003673320   -1.22599674580383   -1.11783567160999
H           2.14360927313208   -0.59681115958868   -0.35081698886777
H           2.77353296663306   -1.69948625976375   -1.29826134563682
O          -0.38530994969151   -1.87110413675041    0.10448103263840
H          -0.27818972949947   -1.53781712496307    1.02441277009004
H           0.47907068382399   -1.74521984998719   -0.33189751057445
O           0.25563967758402   -0.24236252788028   -3.01135076096765
H           0.93574669798674   -0.47338968304952   -2.34710645433855
H          -0.37830454817138   -0.96471979782997   -3.00200321216148
N           2.14273446703891    0.35214801402235    0.96336425400448
H           2.89192689999746    0.96884168262119    1.24978162597216
H           1.78986725147403   -0.11984236855018    1.78894171553297
H           1.37932115162861    0.92662104665564    0.61233008132195
