    26
        -50.45101136  Gyration_radius:  2.57351153025 Dipole_moment: 2.763
 S          -0.69159200867133   -0.15923127923873    1.56494341899069
O          -1.04468834593736   -0.14067625724333    0.16056412244377
O          -0.98400859989926   -1.39152923900605    2.22464828922132
O           0.81615903428723    0.17675439595091    1.68698945122847
O          -1.34950805603837    0.99353694448791    2.29705305122071
H          -1.05622841325943    1.89736217690713    1.87332540309738
H           1.36501139283341   -0.51401084424253    1.20757027246532
O          -0.74410151459037    3.16153501264492    1.19383580016277
H          -1.39219264848724    3.82293164548192    1.44700200786700
H          -0.94718558923327    2.91661633203585    0.23389025442688
O           0.73391367489027    1.86470255246208   -2.76348441928785
H           0.51965426757707    1.82253159616385   -3.69652209156603
H           0.85081772301832    0.93530140364167   -2.46687547265104
O           0.76477179426803   -0.64690528648780   -1.79738342220859
H           0.04991688239023   -0.51602415178118   -1.14879650576851
H           1.53569317180520   -0.90518268104192   -1.28171023956839
O          -1.37221367015507    2.24936761254543   -1.12190962908382
H          -1.42582594572979    1.33621996767677   -0.79324681181561
H          -0.60740686827999    2.25591064585660   -1.73846033065749
O           2.10420081771837   -1.70489022821352    0.48276357886688
H           1.34233997419837   -2.36576105384408    0.35923407002776
H           2.72847094672994   -2.10426049043172    1.09141468571861
N          -0.03759136908274   -3.17014703233905    0.24305913865034
H          -0.55223465567974   -2.70397791059220    0.99069980998612
H          -0.10831535642328   -4.17045099453015    0.38049411719324
H          -0.49785665823962   -2.93972286685991   -0.62909852894112
