    26
        -50.45249869  Gyration_radius:  2.5154409203 Dipole_moment: 2.839
 S          -0.30031011063980    1.01101508851219    1.35651095476766
O           0.70150011684079    1.07412995750695    0.30722967280536
O          -1.45246466774235    1.80864391160561    1.09801805210863
O          -0.67243895579937   -0.46338905532046    1.58988301630286
O           0.33664763780196    1.39139686618443    2.68973904245635
H           0.99702776726779    0.64879700128290    2.90272134193487
H          -1.09162943329353   -0.91225029591514    0.77021509022020
O          -0.33699328387778    0.26855970057605   -2.02429295071702
H           0.15967542277516    0.66073114887795   -1.28103017294002
H          -1.09200509221590    0.89753721963495   -2.14743553211423
O           2.37490006807832   -0.98368190858449    0.49664565738036
H           1.89660915659178   -0.14970023963438    0.32960131833599
H           1.96056817741402   -1.62702515757522   -0.09880629105099
O          -1.53013837635734   -1.55653063331363   -0.52408097351198
H          -0.94637451668320   -2.31399529478611   -0.64737391283307
H          -1.22032972485510   -0.88639237607497   -1.18600608330096
O           1.02321460695228   -2.15894298938468   -1.67045861545083
H           0.67374012791549   -1.31519448573933   -2.00172786744469
H           1.62924002881670   -2.48481883483606   -2.33742247414665
O           2.04200987023634   -0.47021337764569    3.05565423303795
H           2.88729240704934   -0.10312386837579    3.32540376162213
H           2.17764972145545   -0.83145382528057    2.14273643466146
N          -2.37458881982857    1.96196862788796   -1.67578240919895
H          -2.14519801644851    2.02353534389854   -0.68345925533943
H          -3.32007164089308    1.60514342659099   -1.74253445740315
H          -2.37753247054936    2.90525405994966   -2.04394761012504
