    26
        -50.44594309  Gyration_radius:  2.46267122696 Dipole_moment: 3.310
 S           1.01621092044597    0.82478287779475   -1.68853091287915
O          -0.36719181605982    1.13075663684233   -1.39216986340516
O           1.55071970840708    1.37725644387100   -2.87548105028775
O           1.83824606989690    1.25649814013134   -0.43252849901869
O           1.20859302037187   -0.70261576946279   -1.70079342378694
H           1.07597554679917   -1.05021072978456   -0.73689737909375
H           1.20119537092247    1.79147577040896    0.13593794257593
O           0.72117521687775   -1.41388969965180    0.66394332597021
H          -0.24358081330451   -1.20720854104523    0.61012404858632
H           1.12516432327219   -0.79339169573489    1.30092069895663
O          -1.24730844104846    0.70554878232875    2.39255076787626
H          -0.70658825814835    0.09256046847121    2.89643159579044
H          -1.67396722775978    0.19282482832819    1.68494809171086
O          -1.72918660304068   -0.61904628229974    0.06688933111515
H          -1.36986373540941    0.10448237679197   -0.48855074181584
H          -1.89653786863820   -1.33856699028653   -0.58228100975195
O           0.05848453894959    2.51372152799754    0.92599739551486
H          -0.50406457616857    2.64311155356249    0.15427857211493
H          -0.45984308194442    1.91823744779287    1.52138664215493
O           1.85330578993786    0.48549925195973    2.29456313007165
H           1.40723606440004    1.33060396691173    2.40910587305829
H           2.60586266333239    0.65704032462681    1.72129254570562
N          -1.47331032705558   -2.35115940250597   -1.99953639435762
H          -0.56314190504697   -1.96748740325864   -2.23597146897152
H          -2.07351178022008   -2.23703716292379   -2.80700587262074
H          -1.35407278961827   -3.34378671062798   -1.83862334522239
