    26
        -50.44780851  Gyration_radius:  2.5092335152 Dipole_moment: 2.693
 S           1.92653964192451    0.36305997196591   -0.52721129997059
O           2.00827441985482   -0.87819696855949    0.20892886966434
O           2.12945023708118    0.27610099953493   -1.92748075176516
O           0.55376347099313    1.01641793779648   -0.21039381505896
O           2.89594795319458    1.37703336340984    0.10868702873459
H           2.53645727279824    1.55507996603735    1.03160638882541
H          -0.09265198210494    0.99197396429010   -0.99872184092797
O          -1.74405227926446   -1.25748235228142    0.76452635303070
H          -1.24004610607980   -1.56027479146828   -0.02717737932765
H          -1.07578992684658   -0.97411989240579    1.40378361633216
O           1.62761949251243    1.73809270220711    2.32657009116792
H           0.90994015104426    2.29625429130496    2.01603199556307
H           1.22002095186710    0.86085729884344    2.49496424868886
O          -1.16613054895899    1.04946821089051   -2.07765208002257
H          -1.22317846329534    1.95152202394777   -2.39874423180477
H          -1.97007851438636    0.89698064769114   -1.49804094518248
O          -3.12987936087498    0.60902382150516   -0.43025156375416
H          -2.64067100947474   -0.05302336897733    0.13297788515959
H          -3.88927117860994    0.13676157974260   -0.77574364933285
O           0.56089607249875   -0.73732422037258    2.36503411548960
H           1.09442322573649   -0.88498048824221    1.54725321382432
H           0.81441070380105   -1.42661973979797    2.98217237842830
N          -0.22585348312141   -1.83076365017175   -1.43208139609115
H           0.69753907750206   -1.70303105186521   -1.03201494327976
H          -0.35132940335657   -1.09796176594291   -2.12092434237874
H          -0.22635043442542   -2.71484847910048   -1.92609793600048
