    26
        -50.45721875  Gyration_radius:  2.42642184061 Dipole_moment: 3.362
 S           0.35695051255976   -0.75241095175580    1.03797736913954
O           1.08905432196216   -1.02802533170352   -0.17940742410601
O           1.00729655687817    0.14380285587690    1.94441738472700
O          -1.02122628970000   -0.17970969240031    0.64972946364247
O           0.00404072952111   -2.05550833433419    1.73120842150775
H          -0.21718884943680   -2.72017230677936    0.96328557180048
H          -0.88611110571638    0.77424387175583    0.20850061125246
O          -0.06985699094478    2.60150520984584    2.25887715458408
H           0.40857832145990    1.75059430409015    2.24990266165288
H          -0.59675832403007    2.60432386361965    3.05927398111773
O          -0.44476194921146   -3.41736721532472   -0.32079335685625
H          -1.23711102872997   -2.96474265689249   -0.72681290515392
H           0.31605098323585   -3.12837666033137   -0.83568180998050
O          -0.54210006069537    2.06479410700060   -0.31836879154578
H           0.44459873269948    2.00165222740729   -0.51087160634324
H          -0.57548622616070    2.56348169312143    0.52110864884414
O          -0.39464345112738   -0.23078945735808   -2.32414357925410
H          -0.59101537514743    0.69181647775111   -2.13930953246937
H           0.25150915577353   -0.51512183654030   -1.65494415752261
O          -2.29961725368202   -1.83709776459589   -1.28603258862365
H          -2.45417056922572   -1.28369794511349   -0.51364448194392
H          -1.73187478539613   -1.29761177250386   -1.87607768699385
N           2.04808216472459    1.65559192902995   -0.52969042843662
H           2.02193679626426    0.64364631864975   -0.43377617181032
H           2.44984889883261    2.02465867902294    0.32314137039431
H           2.66397506530679    1.89052040844551   -1.29786811763301
