    26
        -50.45043695  Gyration_radius:  2.52665281963 Dipole_moment: 7.543
 S          -2.31408276338619    0.14600667499720   -1.21963792331017
O          -1.82130792204795    0.20586157116872    0.14182117746038
O          -3.66159639607080    0.51227145087925   -1.43472088099322
O          -1.37152316798592    1.00402278416755   -2.10370441091676
O          -2.08612835058052   -1.28673473187687   -1.75692588102998
H          -1.18502959898275   -1.61773494206710   -1.47636290954545
H          -0.59726666483025    1.39439513344584   -1.59598907554367
O           1.32028983242891    0.07409178850665    2.43546314626514
H           0.73168298473023    0.83166811775264    2.17231353199644
H           1.44351425638955    0.14979282811783    3.38238736135162
O           0.16072764008354   -2.27554792852305   -0.91549455608299
H          -0.04510600565916   -2.14091825063170    0.06525225852669
H           0.07892968533598   -3.21689959979047   -1.07978548051215
O          -0.32484617397983    1.95189438967197    1.57907501496786
H           0.10347020727738    2.33014077410059    0.79997970295347
H          -1.02718238329858    1.38848482327685    1.21097117671372
O           0.71233381505904    2.03020831098737   -0.99973495024847
H           1.29737265710715    1.21692924540488   -0.78701682184911
H           1.14169907003942    2.50950695835032   -1.71016251450019
O          -0.50912211923459   -1.71864976788224    1.50377271957383
H           0.20148337590477   -1.18879538891322    1.91787162357806
H          -1.15868268772843   -1.06283558159831    1.19311816012452
N           2.12092342220480   -0.07632281013322   -0.42127561644568
H           2.08811924657137   -0.12981579929317    0.59323062813450
H           3.08750945741557   -0.15376093610956   -0.70925238531967
H           1.61381858324232   -0.87725911401254   -0.78519309534261
