    26
        -50.44901285  Gyration_radius:  2.57371415215 Dipole_moment: 3.910
 S           0.74022866006669    0.14808219334179   -1.24931342436118
O          -0.68079910854465    0.23791977675043   -0.98394428784991
O           1.28788128933928    1.20884718855079   -2.02665072699273
O           1.47445317185587    0.05968324175668    0.11033211048282
O           1.02804421721434   -1.20540310618485   -1.89688283062596
H           0.55579610816981   -1.93088605721512   -1.33109604850565
H           2.01591972578861    0.93651934008528    0.19388803657689
O           0.51737880610113    0.60535407833276    2.77143845299736
H           1.33095713247692    0.25039452930331    2.40301807360775
H          -0.18746837939455    0.06350720543390    2.37165519109892
O          -1.26763500061048   -0.87483284563074    1.30189566301328
H          -1.07651605249452   -0.37780189808331    0.47137460891472
H          -2.20607221590799   -0.77153751357250    1.47031115282670
O          -0.32586274709795   -2.81395084411613   -0.49555354974728
H          -1.15075809981431   -2.71909603169560   -1.03418046828882
H          -0.50844185757313   -2.34249970429566    0.33343671966678
O           2.52679475569470    2.32835608275489    0.12140596338305
H           1.82927298826117    2.77444861796430    0.66324248914756
H           2.28062263235003    2.43804363283623   -0.80792976021942
O           0.55645578366661    3.07490573104269    1.72588684792054
H           0.73898990721179    3.68484492214897    2.44278784518153
H           0.45129136154314    2.18780010299199    2.14359583280355
N          -2.36426442695773   -1.92871622954177   -2.01342869777936
H          -3.36525582274157   -1.90901388721638   -1.86358085747905
H          -2.20411184036765   -2.12782064432282   -2.99298530782931
H          -1.99690098816434   -0.99714787142814   -1.82872303792509
