    26
        -50.44478848  Gyration_radius:  2.58974151204 Dipole_moment: 4.491
 S          -1.51816697961884    1.02488130136117   -0.88525420374376
O          -1.36960618490211   -0.05075145467229    0.08114797561980
O          -2.80366491685975    1.15388416738031   -1.46089012837348
O          -1.01158650402430    2.32355806305697   -0.23163804336857
O          -0.48375348681555    0.80932446475796   -2.01305686260306
H           0.43394471455767    0.75379427408532   -1.61629282785946
H          -1.32876149239620    2.28804347297253    0.73796586115054
O           1.93677928725385    0.44508243587995   -1.16642925979356
H           2.57023049738247    1.01159341116880   -1.61083856307063
H           1.92753841653546   -0.43087850425959   -1.65895012157379
O          -1.78293510175101    1.80810061227913    2.11018045982800
H          -1.97138614064455    0.89996422024598    1.84415172892734
H          -0.94585015183555    1.77307484576341    2.63758823859848
O           0.99568723007849   -0.39257016254542    1.33969599773320
H           1.59386693054628   -0.09441702343158    0.64280640092719
H           0.10914995690192   -0.34969299710466    0.93622468976022
O           0.56327387394610    1.38116826857786    3.28243573207760
H           0.84988957058133    0.72293944782072    2.60697029147447
H           0.61416045599721    0.94036515470733    4.13167759192193
O           1.50838593108316   -1.72191083888823   -2.51059689112431
H           0.88965260798488   -2.16446925751462   -1.86134975399891
H           0.95191191168761   -1.42807991813055   -3.23516989126972
N          -0.25286873013178   -2.63178949815907   -0.73217990825058
H          -0.88534789185948   -3.38785055008542   -0.96218774307218
H          -0.81451380647762   -1.80576840872842   -0.53349990800332
H           0.22396998277227   -2.87759552684410    0.12748915836619
