    26
        -50.45043694  Gyration_radius:  2.52661879602 Dipole_moment: 7.543
 S          -1.57196476048984   -0.06916427095398   -2.09461173306079
O          -1.71564277811678    0.05293201373205   -0.65778925077703
O          -2.71936065849562    0.17828073963082   -2.88100745658013
O          -0.40425039059918    0.85206078367753   -2.53480933945031
O          -1.03596060901516   -1.48539464576422   -2.41130458286889
H          -0.32148773593194   -1.73474523331965   -1.75739422023367
H           0.04821727321289    1.31441168907693   -1.76600785088758
O          -0.98260507276417   -1.73241162883855    1.22783095437424
H          -1.48048314714098   -1.13876711077401    0.63770482210664
H          -0.55703144605472   -1.13798532798826    1.87800051181827
O           0.14056465801192    0.22294220069271    2.75877455718958
H          -0.15938933412293    0.32325615840112    3.66295399479174
H          -0.32997815251891    0.92381806977525    2.23246803389300
O          -1.10594178971101    1.94123566178844    1.19048799053666
H          -1.54139787679997    1.31479231725300    0.58703970142437
H          -0.41272127361875    2.34247099025712    0.65014457843037
O           0.92788219428736    2.06791974704496   -0.70143218936609
H           1.42065359728861    1.31037119957834   -0.21949935816238
H           1.58557224048154    2.57095881211637   -1.18432010008873
O           0.69634359900850   -2.26770464832077   -0.64461962009261
H           0.08124334023892   -2.13593500602546    0.14701205848231
H           0.75889778029340   -3.21502866832153   -0.78061675657255
N           2.09617948572209    0.09713557435866    0.52625685918530
H           3.09571182413093    0.09729313524458    0.68167451951981
H           1.85134898606827   -0.74932078540389    0.02160766218768
H           1.63560002664495    0.05657826308861    1.43145620420075
