    26
        -50.44478850  Gyration_radius:  2.58966854174 Dipole_moment: 4.489
 S           0.35398507812763    1.48741045369429   -1.34231488523175
O           0.04577098017442    0.06711293304435   -1.37093702594224
O           0.87290386254729    2.02291091687437   -2.54421888255009
O          -0.89253542748718    2.23352701608723   -0.83261834112395
O           1.36706101413757    1.74034917689912   -0.20288954245159
H           0.99048712584167    1.39701873327083    0.65906048534518
H          -1.69147384084284    1.76133792455715   -1.25782625939824
O           0.65589510298151    0.74428734508514    2.07979432402995
H           1.51928690989533    0.22999287701409    2.07133100353824
H           0.71492742824882    1.38249151522934    2.79316821824198
O          -2.60751723100251    0.72299127736894   -1.89180925849984
H          -3.10102940309213    0.34153977062554   -1.12296581080178
H          -1.91192996389284    0.08946636160949   -2.10580382051809
O          -3.56207772668716   -0.48009587996651    0.27658424048542
H          -2.66881264644212   -0.74905219910280    0.59523477811789
H          -4.07906067466175   -1.28354928782734    0.20362490241071
O          -1.02697413295397   -1.10698173277874    0.81220021924701
H          -0.64121697860985   -0.77424619176409   -0.01906885860172
H          -0.61362886568406   -0.57288372140884    1.50230970944564
O           2.92733791834612   -0.42171282862602    1.67107184912811
H           2.62877974917560   -1.05468143709895    0.95655846480083
H           3.44401735708005    0.24915098127327    1.21937051053470
N           1.96372558299838   -1.88669330956807   -0.33350250958862
H           1.31279935202224   -2.57474894516013    0.02664613128376
H           2.58283175242250   -2.35620072174151   -0.98220252411550
H           1.41644766718027   -1.20874102769071   -0.86079709796237
