    26
        -50.44601502  Gyration_radius:  2.46961695376 Dipole_moment: 6.654
 S           0.68600196445903    1.16805571008410   -1.93931486668307
O           0.60260642393271    1.81254622976993   -0.64209265370263
O           1.47698791156616    1.81650514389855   -2.91782350349606
O           1.11537801536816   -0.29321961803242   -1.73958328928916
O          -0.76833897707863    1.00499622114255   -2.45930593542852
H          -1.30957953458463    0.86836380853061   -1.64195418619490
H           1.61448286911760   -0.51921090927052   -0.83275077444244
O          -2.15186943557189    0.80328716817159   -0.24012253462162
H          -2.43754190301003    1.71413187507191   -0.14164634119995
H          -1.62980250864424    0.59756319219189    0.56009417505422
O          -0.84090434301564    0.40900162209459    2.15061442070388
H           0.04744744365877    0.81330934508593    2.08713485028312
H          -1.18190586380964    0.61206132258363    3.02287241467155
O           0.03736916786974   -2.13462835746223    1.29605306169313
H          -0.43918273809633   -2.26927950895104    0.44254408316212
H          -0.40195972196845   -1.38111385366898    1.71390859461583
O           1.60274297854086    1.49835443241827    1.70787124481567
H           2.12183421606480    2.25628846178874    1.98020253747964
H           1.26930504182030    1.69998677793601    0.79653957800829
O           2.16570114732650   -0.88985176050025    0.43426080801483
H           2.15940518280802   -0.10115217410154    1.00087880045961
H           1.45168150712560   -1.48948581655754    0.79902126510663
N          -1.21378799907035   -2.06971606385465   -1.10872957967013
H          -0.46894830362773   -1.62610267460651   -1.63745819598492
H          -1.98739168385992   -1.41691825435541   -1.06539009040820
H          -1.51973084730231   -2.88377231940647   -1.62582385294535
