    26
        -50.44633429  Gyration_radius:  2.60526571558 Dipole_moment: 7.358
 S           0.16241369238346   -0.93062785695940   -0.92783080363268
O          -0.13511422571278   -1.65184545610274    0.28262053069245
O          -0.76707642654565    0.09440953340696   -1.30667037481066
O           1.56098609274618   -0.32161895416816   -0.77407918892378
O           0.29382925499592   -1.92808174824514   -2.08766661277534
H           0.75079042329207   -2.76358170954658   -1.69124954394948
H           1.54426710754029    0.67454386678128   -1.12242491631693
O          -2.25016312818748    2.03012377479061   -0.15208432689744
H          -3.11916518709825    2.06462058845023   -0.55444472917404
H          -1.78169932347263    1.27941669978351   -0.56131705921456
O          -2.36317665941912    1.08800371092280    2.55348811045632
H          -2.44223362674046    1.48304567282247    1.67548504137635
H          -1.45056654718952    0.78782581476421    2.61535397661175
O           0.27400647569540    2.78864715407188    0.73344317997725
H          -0.67280822934781    2.84374602960490    0.54091014139194
H           0.37029874603675    1.99694078561049    1.29098532722947
O           0.39037492361576    0.33247066170281    2.00017684750183
H           1.21019348762572    0.08345527679533    2.43040187427334
H           0.12710956528399   -0.42064002769215    1.43870972125216
O           1.25054381523020    2.02165225232776   -1.54454780087978
H           0.42805126227741    1.88220353069601   -2.02625722632039
H           0.97532099225585    2.44001693977353   -0.67150606533784
N           1.34486928040203   -3.83254512908695   -0.74121463529352
H           0.90109926921395   -3.44211529865499    0.08507960599707
H           2.34893289909029   -3.80798215976224   -0.62456108917300
H           1.04891606595280   -4.79208395208899   -0.86079998402285
