    26
        -50.45989263  Gyration_radius:  2.45061235469 Dipole_moment: 8.210
 S          -0.33737063580810   -0.96760110656720   -2.18834450243806
O          -0.79572628763975   -1.33170032127885   -0.84042392520332
O           0.04005770106501   -2.08054309362211   -2.98504073712560
O          -1.54281475275844   -0.22363407613936   -2.87012561909626
O           0.73319353964303    0.05272479285607   -2.05533588016957
H           1.59854069541653   -0.00583516986529   -0.84816229110603
H          -1.71081452567334    0.54594557053549   -2.32394482069314
O           0.81715493477790    1.91476214278706    1.43600042766243
H           0.21479603873945    1.23605866879469    1.88268067944417
H           1.05078040070757    2.55096890501670    2.11221085297955
O          -0.64151936150946    0.05355776546508    2.45359206383439
H          -1.45463678615774    0.10168366091682    1.88983402408123
H          -0.22716451639186   -0.78896315611519    2.22468048518210
O          -2.48734275434392    0.18861580659601    0.55725152145606
H          -2.21276769252547    1.00385341686554    0.11000191581267
H          -2.05381628607563   -0.51745189627552    0.04190200706561
O          -0.82673626999598    1.85065683770907   -0.91623634379981
H          -0.18092935112127    1.30426077017229   -1.40485069532833
H          -0.34616388774191    2.16094306858923   -0.13664098003425
O           0.71146458779879   -2.07745393065473    1.09200235041072
H           0.07705160940444   -1.85779900472812    0.35124116225515
H           0.79905751292785   -3.03145337262028    1.08546490329135
N           2.10919435169923   -0.01673592615890    0.10853541101947
H           3.11498128258383   -0.00439315128113   -0.01715122357362
H           1.78216957687512   -0.87929730051271    0.59750061324065
H           1.76936087608292    0.81883008953627    0.64335861080329
