    26
        -50.46220853  Gyration_radius:  2.42272561469 Dipole_moment: 2.968
 S           1.14501402953635    0.27066433283311    0.43590742553119
O           1.04456634493584    0.87204232053982   -0.88664748073756
O           0.44744221979665    1.05794294085004    1.44375501731913
O           0.63119296317456   -1.10652558066427    0.40806917702669
O           2.63188696088847    0.20955598868014    0.85103275865389
H           3.06639418694453   -0.22263329384012    0.06020193784126
H          -0.72700540319267   -1.35850208410321    0.95005039107129
O          -1.42011792737201    2.16023750139590   -0.07448850572305
H          -0.71100270007594    1.85850917466815    0.53087592742227
H          -0.95384385287445    2.43857440835995   -0.86672799418561
O          -2.63983524697804   -0.10829341736589   -0.68198755951252
H          -2.01721157001828   -0.40816289336260   -1.39248467712321
H          -2.35024630796583    0.81431614904002   -0.46882691174754
O          -1.72210267230193   -1.37208046382391    1.23668547969886
H          -1.77399707703437   -0.73352830102021    2.02929940796048
H          -2.23038580181905   -0.86307573097874    0.40101267414819
O          -0.54977231847609   -0.84278419099079   -2.11424605022358
H           0.03790989254110   -0.13002049867577   -1.78148356570965
H          -0.26796656389535   -1.62440206103606   -1.62922675523969
O          -1.59655896795253    0.48751445813653    2.99103807504006
H          -2.19496308417370    1.22077596092223    2.82681126054898
H          -0.72991368968862    0.75739549689381    2.61397377993702
N           3.26701723218966   -0.79558459294647   -1.46766339629718
H           2.96769758676716   -1.75359553007166   -1.59162089960415
H           4.10905384045199   -0.64770830888512   -2.00833919835669
H           2.53674791666404   -0.18063177449028   -1.81497031776884
