    26
        -50.45444920  Gyration_radius:  2.45789422537 Dipole_moment: 2.246
 S          -0.62949579452857   -0.56652286163759   -1.19997536360649
O           0.28144118686238    0.53825198715509   -1.36253995820654
O          -0.04805408043789   -1.86269739144171   -1.34332873302408
O          -1.31911030774535   -0.45943499625898    0.17662392384424
O          -1.80021371690399   -0.42391890446262   -2.17518656297095
H          -2.25247374291907    0.44951328357163   -1.93287016307251
H          -0.84443319289075    0.16329351589208    0.84106043668231
O           0.14920139594247   -2.76386370517185    1.20347295104240
H          -0.77654972649926   -2.77983899838326    1.45290575586691
H           0.15954932846586   -2.57586604409782    0.24816410554824
O          -0.63713546771785    2.76190954072954   -0.24504620716360
H          -0.51066037092598    2.51783903590091    0.68004368037734
H          -0.10433061801766    2.11062780423047   -0.73861365406386
O          -2.76575793561671    1.83399152763125   -1.47403519202167
H          -2.91966373312590    2.40635550787536   -2.22919541787505
H          -2.04319129642343    2.26513802602094   -0.94228530333349
O          -0.14603796329913    0.97269789337043    1.89487198224900
H           0.68244874142917    0.37119422167984    1.99824361057672
H          -0.62307830120482    0.90106042306486    2.72457873149359
O           1.73349572715537   -0.71912933396124    2.06616785752236
H           1.23499917430193   -1.55010353251404    1.94363180108234
H           2.26432549311935   -0.64278930610210    1.23426740225241
N           2.72344683558356   -0.71791701624324   -0.42715821955071
H           3.61499253728989   -0.39855676434711   -0.78519007999211
H           1.99223737228699   -0.16170921926761   -0.86248563286318
H           2.58404843580102   -1.66952471326471   -0.74612177076429
