    26
        -50.45192202  Gyration_radius:  2.49144723778 Dipole_moment: 5.222
 S          -0.78412045493380    1.96801916468499   -1.06809477070291
O          -1.55017180512749    1.82732811553794    0.15686025927803
O          -0.72126071364917    3.26849166777315   -1.62247691852591
O           0.64240720616168    1.41773338498126   -0.76570382878513
O          -1.29613703123342    0.97908966366146   -2.12050762830677
H          -1.34352291771377    0.03439763665873   -1.73611712236719
H           0.77706033264404    1.51950699316021    0.25207867569644
O           0.97033702822123   -2.14243297975647   -0.04832534662275
H           1.25929776027862   -3.05164074677362   -0.13574347730164
H           1.66811068902883   -1.56880285693718   -0.48045760448005
O          -2.46694678519921   -0.35880400228499    1.23638198321977
H          -3.36900064267795   -0.23310836128886    1.53337260380858
H          -2.17115418684763    0.50880589641680    0.86484621350704
O           0.71520500907556    1.63300019165998    1.73227869360235
H           0.57181568338170    0.69326889574284    2.03563352939736
H          -0.14721966426841    2.06000661403924    1.78969768700048
O          -1.41225364935705   -1.33229261737003   -1.06628896981199
H          -0.53336647553950   -1.64655107307612   -0.77159737809338
H          -1.92175415755643   -1.17378320304950   -0.25074205442360
O           0.07576126548751   -0.86286589585236    2.23821535377341
H          -0.87680380456281   -0.81898635635922    2.06084286658317
H           0.45687346792724   -1.38271093255421    1.51085835704463
N           2.73618512222471   -0.55118796372368   -1.22748462019905
H           3.04040442885914   -0.75184350624161   -2.17199657542756
H           3.55132451553531   -0.29892488328606   -0.68258069562602
H           2.12892977984459    0.26428716423873   -1.26294924223383
