    26
        -50.45080537  Gyration_radius:  2.53928094929 Dipole_moment: 6.466
 S          -0.90423097462243    0.74319175113645   -1.87638861280570
O          -1.16462923857530    0.05835027840786   -0.59970307593841
O          -1.83735440755071    1.77293907785964   -2.17543934184765
O           0.55590457100023    1.33586520277119   -1.71802288188599
O          -0.71372085789577   -0.25919458152636   -2.94373059674121
H           0.44135239285273   -0.86633627932807   -2.62561500747037
H           0.50251375301694    1.98237761790300   -0.96644626421505
O           0.68060185606332    0.86902404664334    2.16739648117538
H          -0.26427842272946    0.68563710685965    2.29734439756100
H           0.99569746197708    0.15279872003546    1.58933131110350
O          -1.96794064913270    0.05672345477957    1.89348696398100
H          -2.82486639085510    0.47051927367315    2.00348003379291
H          -1.76909291744857    0.10629078069840    0.92972671564984
O          -0.64694272593556   -2.36620476355204    2.22624888602786
H          -1.26902195320431   -1.62269444573489    2.13604436843474
H          -0.31243586056384   -2.32591908608584    3.12399381610661
O           0.52579887273145    2.83734596126048    0.40268718241259
H           1.28697370350604    3.41161888271379    0.50198330953086
H           0.58813360223120    2.15909394686304    1.12403841103191
O           0.87710594104586   -1.20229594305013    0.31409407298966
H           0.08952426293922   -0.69690824974472   -0.03289501551793
H           0.47556513628665   -1.86403797546429    0.91081248187683
N           1.45713074381295   -1.29177366722242   -2.26700175781546
H           1.69391802826221   -2.15731155096191   -2.73927345657691
H           1.35862862231091   -1.42073721589388   -1.22567411157275
H           2.14566544027165   -0.56836233341265   -2.45047830945775
