    26
        -50.44928930  Gyration_radius:  2.53720293985 Dipole_moment: 6.253
 S           1.23430179887767    0.35964166401937   -1.69443618184167
O           0.43049546421845    1.52888286325770   -1.45366829139379
O           2.15841718833439    0.38426586936730   -2.76651112735761
O           2.00371548133367    0.02961619326864   -0.38032027274533
O           0.29177435510303   -0.85990827503541   -1.87042711670109
H          -0.53892197936838   -0.72993898003992   -1.30159015079083
H           1.46399586523467    0.34435357150807    0.41787176171342
O          -1.81028261659604    1.82796241848461    0.92077855429520
H          -1.62027210790067    2.50540342669667    0.22437917633624
H          -2.62100859104309    2.09937194080467    1.35363298136355
O          -1.18739452749557    3.55961695354934   -0.98086165765378
H          -0.62745835811713    2.86083792892621   -1.37044649041572
H          -0.58640926879452    4.27141806876951   -0.75190310092749
O           0.57151298229020    0.62867546997197    1.65116707499911
H           0.22467149460361   -0.25482172416797    1.87013269617643
H          -0.20057970279020    1.17150769174513    1.41696020746754
O          -1.70271261823917   -0.61969766788555   -0.29978442012004
H          -1.78993705912607    0.29522263643956    0.03073925451230
H          -1.40770956493053   -1.15409242962191    0.45899696028517
O          -0.40441898956006   -1.93308934846062    1.72657103602633
H           0.29449183738696   -2.33272926682441    1.12809056309066
H          -0.61551913317640   -2.59103674813674    2.38960826318321
N           1.43041944407426   -2.83048635976872    0.03223327343069
H           1.98958148596440   -3.66995363720297    0.12144600546100
H           2.05973561018638   -2.03343617461989   -0.00659517102436
H           0.95951152946967   -2.85758608515233   -0.86606382717690
