    26
        -50.45080538  Gyration_radius:  2.53925175994 Dipole_moment: 6.467
 S          -0.67969428629462    1.24689197296160   -1.69534074665279
O          -0.99742802023128    0.08696476421441   -0.84660157762393
O          -1.77236634157813    2.13646596182008   -1.88307120495513
O           0.51315374456416    1.97137755123468   -0.94657816774120
O          -0.02677452790839    0.78542411092835   -2.93669760129804
H           1.16119556317975    0.30912300521813   -2.52881986344265
H           0.14519248243865    2.25618744098460   -0.06954293247866
O          -0.01135740035671    0.06225329016080    2.43148747844705
H          -0.88151761193596   -0.31547096812897    2.22298274365108
H           0.58787416142796   -0.30867836397617    1.76084128264026
O          -2.24675603866599   -1.01856444809565    1.17286181930508
H          -3.18639437707148   -0.83211128080046    1.16998815654167
H          -1.88216453794660   -0.56588344633331    0.37726194409616
O           1.08195428472463   -1.06144655681421    0.12812344497447
H           0.27375778861335   -0.60326726263791   -0.23657936177060
H           0.75853304339906   -1.96081230622792    0.33245103159532
O          -0.32646112010260    2.50324045949409    1.45443098147036
H          -0.23160230614285    1.61970441269804    1.89559424690455
H           0.22253174605594    3.11473602408524    1.94809855415979
O          -0.42951877623021   -3.11746655322760    1.03480672004149
H          -1.19427328025661   -2.51496179629809    1.02717008104488
H          -0.30083774981328   -3.37254716317581    1.95015290414157
N           2.16168373295204   -0.04181581207013   -2.06292528912289
H           1.89736834786762   -0.57972270265213   -1.19602759179580
H           2.65815664287480    0.80217911485846   -1.79407678409995
H           2.70574483694723   -0.60179943771595   -2.70999027777558
