    26
        -50.44849762  Gyration_radius:  2.48824766265 Dipole_moment: 5.943
 S           0.80803007052166   -0.30989417318643   -1.49717052312797
O          -0.13994409061621    0.78182927567947   -1.43968647644317
O           1.04398047678233   -0.88462228454766   -2.77400669633286
O           2.13697204253350    0.19679676540979   -0.86743414851085
O           0.37270537114671   -1.41954417227534   -0.53165407019678
H          -0.29762207646900   -1.08397429019896    0.19707873544198
H           1.98025373319796    1.15921931640198   -0.56150422239130
O           1.38504189523965    2.50684421467644   -0.12506434741385
H           0.63742934455859    2.38450359630874   -0.72962442658394
H           1.01881949033544    2.31279091208237    0.76248260788958
O          -3.31111269008160   -0.82134531497000   -0.49964340201667
H          -2.86978294171636   -0.80574795142850   -1.37259923208976
H          -3.75102859256022   -1.67107851520096   -0.43816765981650
O          -1.83303655995452   -0.79264028120411   -2.78592612278731
H          -1.13863927141146   -1.35257499845713   -3.14531712719727
H          -1.36463524030167   -0.00518330340231   -2.46830469364794
O           0.29731482915441    1.48995247794257    2.12549296994153
H           0.92690253209610    0.71361332502638    2.17118687750548
H           0.25009096101534    1.86443083744988    3.00626440247259
O          -1.26759993575718   -0.60252907862057    1.16892719775455
H          -1.01030823117102    0.30903830978327    1.38011983277637
H          -2.09192705103006   -0.57591195331478    0.62267829187826
N           1.91931480224326   -0.62135577156548    2.02573532897380
H           2.72226442734819   -0.76843435922832    2.62472010397699
H           2.24978038771949   -0.56305560866418    1.06665824747675
H           1.32673628718728   -1.44112697442484    2.08475856245515
