    26
        -50.45444916  Gyration_radius:  2.45787999866 Dipole_moment: 2.246
 S           0.58144801538736   -0.15881695071794    1.33868531240698
O          -0.53038193471310    0.74382883257711    1.17830501940799
O           0.23713073623469   -1.48660646119413    1.73495509288733
O           1.39264141502180   -0.20573123878436    0.02647983383455
O           1.58604166630511    0.42441020847621    2.33506442314244
H           1.89362740420585    1.30093167985938    1.93140633837587
H           0.89077463220513    0.15270442402216   -0.79453633607003
O           0.08246597651739    2.82304066357559   -0.35120005533653
H          -0.37369103807048    2.19494856229660    0.23968855924399
H           0.11077118037662    2.36830558768759   -1.20192260953972
O           0.18020909117837    0.56115362949562   -2.05253124699404
H           0.75412795563508    0.41575972750787   -2.80790124740775
H          -0.50556145115376   -0.20551613598020   -2.07330623240155
O           0.50172616439024   -2.92635410408397   -0.54441437347081
H           0.34778089094366   -2.54696339656082    0.33900718689269
H           1.43707860242126   -2.80509074941325   -0.71749659905364
O           2.19105660180524    2.63324681493253    1.20438422140280
H           2.14945153595204    3.37089777891670    1.81729417870147
H           1.46678318787682    2.78480617562297    0.53857163610021
O          -1.32234059173937   -1.47843365266012   -1.96298499792569
H          -0.69640209555107   -2.14445665818898   -1.61855170287068
H          -1.94988098138420   -1.33988185808409   -1.21032127775091
N          -2.57325598567196   -1.15824336017423    0.38875028150447
H          -2.29430890966392   -1.97104754994738    0.92574958041625
H          -3.54363878869219   -0.96383964217252    0.60238289064342
H          -2.01365326983728   -0.38305233702140    0.73444213384403
