    26
        -50.46799313  Gyration_radius:  2.40694794107 Dipole_moment: 5.282
 S          -1.46021528576076   -0.53100500002030    1.11831743716794
O          -0.99149334405511   -1.35647568661265   -0.02233023632228
O          -1.70505172893090   -1.33678406007763    2.27925209590048
O          -0.20353912746994    0.40390999997190    1.45489287811912
O          -2.48400076510821    0.38518871875356    0.69234425955642
H          -2.07561612298880    1.65669379599363   -0.32646384922825
H           0.34187232074353   -0.18290721371492    2.05287825605001
O           0.88869048768987   -1.47757061163257    2.78978866406987
H          -0.04683043000344   -1.75564807615259    2.83448048111945
H           1.29380059435701   -1.91778021342534    2.02684304147314
O           1.50933884352180   -1.96835428943544    0.09723732311178
H           1.64273878133363   -2.82059990247356   -0.32069925165921
H           0.53354293508968   -1.78420399616097    0.05143244444296
O           1.01736057043747    2.29298428138930    0.02277789063615
H           0.58806767608849    1.63552905110918    0.60748969516017
H           1.50001910778375    2.89402145400481    0.59204310555620
O           1.87967503755888    0.20889255702593   -1.60062639818446
H           1.94049037536826   -0.52766546424887   -0.96435663905443
H           1.80638242840863    1.02079918976226   -1.07143265700770
O          -1.65039144781354    2.21335231537574   -1.02097861648741
H          -0.83988133299106    2.56936802695176   -0.63170511497834
H          -1.12297493234561    1.01273082145587   -1.89411787692151
N          -0.70307635005483    0.07047110133683   -2.17245083084558
H           0.35276199622703    0.14180875999575   -2.15915408408567
H          -1.06034612030593   -0.26076062989459   -3.06074885128722
H          -0.95132415676993   -0.58599490930680   -1.37471316622378
