    26
        -50.44888967  Gyration_radius:  2.46634093166 Dipole_moment: 5.335
 S          -0.64738581659914    1.54764033007163   -1.07426577770507
O           0.40246136780246    1.57946454471917   -0.07263960725870
O          -0.37673026594251    2.30066366740824   -2.24663597002343
O          -0.89092549795392    0.05071200498867   -1.43868857031565
O          -1.97431168278751    1.95451781668108   -0.45295282548920
H          -2.19520463284797    1.24187268643226    0.25896719704460
H          -0.11687236010778   -0.53294019188139   -1.16451807617108
O          -0.68515236351567   -0.27657316445189    3.25255895413286
H          -0.81769094930079   -1.19761204094906    3.48508117391810
H           0.15190596237987   -0.23089615803008    2.75442701312340
O          -2.38250388555903    0.09941850678391    1.19919542029725
H          -1.84887472941994    0.14619614353935    2.02200136593169
H          -2.14485542731789   -0.75648708166160    0.79056695297290
O          -1.49802536237013   -2.27990698538967    0.12044653874638
H          -1.95765081723757   -2.30446735122812   -0.72151535967532
H          -0.55585127657524   -2.26568003414048   -0.09064307173218
O           1.50102601473738   -0.04800194650229    1.62002940768813
H           2.28780870870072    0.36979291336693    1.97448412721706
H           1.06485900099470    0.63203453585368    1.04959995649005
O           1.12349704709205   -1.40678289567147   -0.73437824002997
H           1.69425954663271   -0.88673447311100   -1.35226410631221
H           1.37006053598766   -1.10348990284612    0.15846034242598
N           2.12313699900009    0.57669361003261   -2.22822343468805
H           3.05814341422595    0.84417726646915   -2.51407550476434
H           1.79374434852940    1.26559226921271   -1.55765462973285
H           1.52113212144158    0.68079594030499   -3.03736331608558
