    26
        -50.44558456  Gyration_radius:  2.49099426733 Dipole_moment: 5.467
 S           1.71373944019673   -1.35101655146834    0.72962047334583
O           0.65232842635741   -2.01290224468029    0.00372849050643
O           3.03775945276552   -1.78739330575934    0.48326009616699
O           1.59674119377038    0.18367581751329    0.43591040127605
O           1.37722218982446   -1.36351024791495    2.22357087304180
H           0.37926938888334   -1.59630624347163    2.30324855593289
H           1.81541043948761    0.38778409166881   -0.54807818826576
O          -2.27088465367920   -0.00593780108246    0.97713008153282
H          -1.71202504834441    0.78203057083397    1.09623311789017
H          -2.11588354209890   -0.29859035331091    0.06323914204398
O          -0.33636686745931    1.93561292284037    1.22823558343928
H          -0.17928816489934    2.22006397347171    2.13022885088713
H           0.39397111947500    1.33343337334914    0.99542694830390
O          -1.29708202930930   -0.94279464375683   -1.42128896457760
H          -1.58047957879884   -1.62312330458910   -2.03374845210598
H          -0.52093017680092   -1.31630511166838   -0.94637614128304
O           1.96104510091381    0.88525849688105   -1.95166458141864
H           1.04104921680388    1.30196044549643   -2.03555283675268
H           2.60124012763079    1.59928543360539   -1.97646119764709
O          -1.05718576985293   -2.00437587464362    2.17471130326934
H          -1.59647468453891   -1.23576243320667    1.83845455927270
H          -0.95558513941383   -2.59423949602750    1.42010982347081
N          -0.47311222014161    1.84790393951682   -1.86065821766992
H          -0.59078707207563    2.26220305397502   -0.94244466249054
H          -0.95297317305836    0.95059620006369   -1.84775561353027
H          -0.93071797573891    2.44244928227408   -2.53907943448745
