    26
        -50.45683222  Gyration_radius:  2.43355248916 Dipole_moment: 3.391
 S           0.95599977429577    0.71735187273952   -1.40056103088627
O          -0.45599910632083    0.60513836656310   -1.10982468629426
O           1.35346176406505    0.40331486906944   -2.72405600658297
O           1.38348058057449    2.16667236050419   -1.04696884884607
O           1.75240960377772   -0.16271370931725   -0.42542737191613
H           1.46675813888448   -0.05633124917672    0.55784031084165
H           0.95560826919869    2.41137524253937   -0.18299736691274
O           0.99338666234025    0.16899166491357    1.95736686887468
H           0.80845599291165    1.11892618239401    1.98908835062938
H           0.12562470480905   -0.29224878487615    2.01559764681422
O          -2.05067392054728    1.49102450222195    0.86017414060833
H          -1.75066113798911    1.21325190582085   -0.02210915075589
H          -2.04410524146802    0.67312473489122    1.38406637066247
O          -1.35271196656728   -1.88191150129236   -0.57849386192224
H          -1.25673139549346   -0.98427182880847   -0.93507310277302
H          -0.58531372230595   -2.35044337086296   -0.97309793268982
O           0.19784276418662    2.70715373918572    1.22964266878390
H           0.09400087390501    3.64954446481193    1.37229008837048
H          -0.72958198226374    2.32385881794446    1.13196844743683
O          -1.40253797556254   -1.01543073281557    1.87841045395883
H          -1.39281037560108   -1.42213301265756    0.96353279830097
H          -1.69768410056674   -1.70356691532251    2.47561380542810
N           0.91526773693212   -2.47407289705545   -1.96498897006988
H           1.00026561698440   -3.17798709398991   -2.68914911553877
H           1.71773271847747   -2.56474007124228   -1.35314486887367
H           0.99851577341742   -1.56387753621718   -2.40969963670140
