    26
        -50.45506988  Gyration_radius:  2.42838678205 Dipole_moment: 5.618
 S           0.66317741732672   -1.02446341767080   -1.17627761042679
O          -0.69916473471696   -0.53942579864265   -1.23064408302048
O           1.40307405978088   -0.84939570380446   -2.38325407074725
O           1.37889374537829   -0.26458235656911   -0.00784008952825
O           0.70941301836365   -2.45362728900522   -0.70184967363786
H           0.20462780341736   -2.54678023530749    0.25076496615535
H           1.11578173859054    0.70297158509310   -0.04707911641090
O          -0.44943801438287   -2.53158504733158    1.48517844691827
H           0.13914121397992   -1.99403611266024    2.08735048790217
H          -1.25315945348406   -1.98785490671881    1.36492328253777
O          -2.31360021860906   -0.68429988056613    0.79402022054109
H          -1.76053485855144   -0.58734378746658   -0.01995706307566
H          -3.21500522857094   -0.82254053355220    0.50038255112285
O           1.04182658273215   -0.78603064840171    2.74595096738114
H           1.66816917712498   -0.64479340662874    2.02888333246120
H           0.43069962707062   -0.01842915548038    2.70861310656633
O           0.68226004607361    2.20463703128905   -0.23160627650449
H           1.43768946104951    2.79191552085165   -0.15871813920904
H           0.45681071042757    2.13391733087949   -1.21856063497003
O          -0.69331568377031    1.18547607623913    2.09780418201682
H          -1.41115707895057    0.63247800486677    1.75555970906359
H          -0.35063303677640    1.68108002288305    1.34427726965609
N           0.25585508374837    1.73581477799286   -2.76049248010936
H           0.50551298891982    2.31951051657920   -3.54992164812694
H          -0.72197230215361    1.48700833939779   -2.84852436018250
H           0.77504793614323    0.86037909362811   -2.82898327640210
