    26
        -50.45506975  Gyration_radius:  2.42848946834 Dipole_moment: 5.610
 S          -0.83023028909454   -1.38058245369138   -0.52671928699189
O          -1.15957757781045   -0.04646772569341   -0.98061910632500
O          -0.65875434622929   -2.33668057156187   -1.57148597644854
O           0.49207653846563   -1.27270749916152    0.30709370543418
O          -1.81810614533120   -1.85963968562606    0.50486924544465
H          -1.87222213819821   -1.15468746619908    1.32448739069368
H           1.12569202449959   -0.66152126435951   -0.17434680947435
O           0.71016440328667   -0.29004132795568    2.94389701577544
H           0.93702885992739   -1.00015393673182    2.33508162143644
H           1.00249286094031    0.53429860726090    2.49762825977672
O          -1.83348427174847   -0.18443645925908    2.32815044008732
H          -0.92060507794758   -0.25526487020321    2.72782474862941
H          -1.84438823344741    0.68166522504941    1.87429686033541
O          -1.50809559068183    1.93105629822684    0.66048721000861
H          -2.17029867730441    2.53713195221357    0.32583790900889
H          -1.38594225171268    1.23309021749483   -0.02937998707177
O           1.21490057121907    1.78200191679603    1.27948366594447
H           0.29914278733372    2.04155596983946    1.09980051332565
H           1.56993017984178    1.44835663317012    0.44674845915088
O           2.05950477393576    0.26820666666193   -1.03517813168894
H           1.59613793985207    0.09965276819228   -1.92223968193090
H           2.94203554292190   -0.10195717041351   -1.10626717620433
N           0.71843858646475   -0.41172968463056   -3.16487025162090
H          -0.01188474613901    0.28019689915230   -3.28152987215072
H           0.26140965861191   -1.23953750612008   -2.78217135106360
H           1.08463462828608   -0.64180554244630   -4.08087943402888
