    26
        -50.46846767  Gyration_radius:  2.39948220312 Dipole_moment: 5.639
 S          -0.72782321611013   -0.28403979783298   -1.64352338943687
O          -0.27273951867593    0.91471066011410   -0.94852095844809
O          -0.35066657533718   -0.28975233511640   -3.03093109071013
O          -0.22189890765321   -1.48087295752322   -0.92822656045076
O          -2.28175277371207   -0.33202794862827   -1.53327830878251
H          -2.49097916628267   -0.18453677535041   -0.57973722589763
H           1.19663524291292   -1.06807832664040   -0.60732333325509
O           1.34327454037498    0.33739834396334    2.07424293040810
H           0.56975444469192    0.94697951643549    1.87839575184863
H           1.84020008673032    0.76079166600728    2.77524878244753
O          -0.69487940952557    1.82559717374650    1.45338674965671
H          -0.56221505455217    1.64044818077754    0.49574701684466
H          -1.55147643868633    1.42686887951371    1.64642084666202
O          -2.74844001783483   -0.11200628849451    1.07965629385479
H          -2.02723316222555   -0.72262467483669    1.40204037748260
H          -3.57960895434653   -0.55491815721062    1.25908530392178
O           1.92449690912769    0.98072400467277   -2.55396924882494
H           1.15576172775724    0.48325607887750   -2.91838980552419
H           1.53698893756429    1.81147300870928   -2.26204141944438
O          -0.70609656685175   -1.63006181270458    1.66380936243063
H          -0.53325424309081   -1.74026456413403    0.70326085066521
H           0.02661834429168   -1.09435464502525    1.99759528197950
N           2.10923519388414   -0.54202621917504   -0.39193233200643
H           2.90722967561755   -1.16845698691665   -0.37160028828823
H           1.96113930841411   -0.08058627907594    0.53083564918523
H           2.17772959352377    0.15636026582809   -1.19025123632198
