    26
        -50.46800651  Gyration_radius:  2.46391641189 Dipole_moment: 6.693
 S          -0.71133286249981    0.24258071603303    0.94951914202676
O           0.37559963530529    1.20866878600243    0.86710798429715
O          -1.69319340301563    0.49026560299678   -0.11449279236155
O          -0.21660421220221   -1.12820473321563    0.87507022695722
O          -1.45729486679508    0.43129009973276    2.28397929590787
H          -0.90274536197034   -0.09111204391284    2.93546699658682
H           0.59091310249153   -1.71638458846753   -0.49437767693060
O          -0.90713963398109    1.80338675991981   -2.31181544313751
H          -0.95905531730272    2.75995245586868   -2.28942517639825
H          -1.21241906394976    1.49472108024667   -1.43273747268327
O           0.21829103731584   -1.05764563062544    3.52075609229745
H           1.01175614351998   -0.48485638692021    3.51268647544336
H           0.23201661458069   -1.52446728896357    2.67102003980083
O           2.14852879223775    0.65618220373583    2.76121922044736
H           2.96705453701739    0.45738868870788    2.30327829261310
H           1.52729747672612    0.98584372334092    2.07883705535176
O           0.87803010603509   -1.75162309179801   -1.43466701185380
H          -0.42160503972199   -1.43234028333607   -2.01709545113677
H           1.35716033091190   -0.89340906148516   -1.55814001771005
O           1.55790612209705    0.78855056865504   -1.48629375701602
H           0.89405858868421    1.22093270854654   -2.04460583048651
H           1.27119997073798    0.99659993414081   -0.57452717365099
N          -1.42162422604482   -0.99599097701311   -2.23584360760643
H          -1.67982780614839   -0.50879377098646   -1.32492825915337
H          -2.11040391793420   -1.69074079168179   -2.50189716403500
H          -1.33656675615413   -0.26079465953781   -2.93809399756546
