    26
        -50.44768605  Gyration_radius:  2.50663849262 Dipole_moment: 5.362
 S           0.47926068441308   -0.03755357764185   -1.93314026850025
O          -0.49306687760428   -0.74300036868611   -1.12732596104448
O           1.18512476222585   -0.81720646749660   -2.88486855634791
O          -0.24766618000802    1.15761481960059   -2.59840300303460
O           1.51972625906362    0.63765778880174   -1.01852022333853
H           1.10506577267368    1.22369292061626   -0.30442574703399
H          -1.17289819172519    1.22025065378439   -2.20915363535007
O          -2.50363138733303    0.94212851265161   -1.38007229684492
H          -2.51213775330963    1.31306685007181   -0.47786920903531
H          -2.19134910053761    0.03132121556516   -1.26402344201461
O           0.46107067151516    2.02973751791084    0.83930271678687
H           0.32392968377885    1.35119045508039    1.53460725489960
H          -0.41909608309651    2.36734753962661    0.64042227047970
O          -2.31713055931285    1.54267595426835    1.29191154782347
H          -1.74388413295793    0.90403061059181    1.75458446419219
H          -3.14357858064301    1.57576868385396    1.77566635571161
O          -0.31476592305334    0.05723661644361    2.49350521646262
H          -0.03778725643469   -0.09988333789218    3.39687146420159
H          -0.07757144437097   -0.77526941106367    1.98121920491668
O           0.27716335928261   -2.03693079106894    1.09212651619977
H          -0.19582415749017   -1.75507120210880    0.29153291879327
H           1.19783352330142   -2.13808389101675    0.76433972416043
N           2.52547275006507   -2.04196549499591   -0.45325009759406
H           3.10998711130611   -1.23694103029414   -0.26045201097672
H           2.04734299474356   -1.83944895119284   -1.32692701015191
H           3.13841009553966   -2.83236559539882   -0.61765818337754
