    26
        -50.44526873  Gyration_radius:  2.53198952007 Dipole_moment: 4.736
 S           0.11315289790876   -0.62197263105677   -2.31918197150425
O          -0.86060838594908   -0.99938591570353   -1.32197663615970
O          -0.18636744191525   -0.94024462066919   -3.66394424312593
O           0.37996423334178    0.90993215410538   -2.13783494030026
O           1.48616755531300   -1.22219825570478   -1.94812959139621
H           1.71821206137797   -1.01933734098322   -0.99786610235663
H          -0.53520600640032    1.28953696950884   -1.90137736673547
O           2.20571105374184   -0.73717295192604    0.49883007083796
H           1.66444754214741   -1.30401249253144    1.13535713579000
H           3.12103749311979   -1.00174447716623    0.60996883685974
O          -1.93779031644259    1.48270077992674   -1.30697985826685
H          -2.09196633430183    0.52834313264558   -1.27032184699767
H          -1.76081882155519    1.76284425886551   -0.37861334078680
O           0.77588499846180   -2.21252897982869    2.05449069827219
H          -0.09007226257139   -1.69919457492477    1.98461670326544
H           0.60421178160963   -3.06536144837926    1.65104106191223
O           1.38752893882615    1.88531292012128    0.30056989904711
H           1.25062510407980    1.82377120590284   -0.65417487199794
H           1.74375146265375    1.01975275886365    0.55859408567481
O          -1.10556207153581    2.10397016506641    1.17167178403789
H          -1.24802023258857    2.99381986667472    1.49744090434641
H          -0.14553723369729    2.04760410128290    0.93362955891443
N          -1.42337282644268   -0.89111490151453    1.51191272075509
H          -1.34290596246856   -1.01680164912357    0.50420474452787
H          -1.38673490404246    0.10693495565686    1.69168897716572
H          -2.33573232266481   -1.22345304909989    1.79638358821207
