    26
        -50.45960494  Gyration_radius:  2.37610293269 Dipole_moment: 4.455
 S          -1.27389600990504   -0.30352671843770   -1.17567448671657
O          -1.11014075634551   -1.35540132545794   -0.16690165924543
O          -2.64105126525384    0.06831373205266   -1.38437717581407
O          -0.52640052159477    0.96851654209495   -0.54377940364916
O          -0.49456123971697   -0.59900271320783   -2.36719523684511
H           0.90903445933136   -0.83482617506181   -2.12908561894611
H          -1.27762768707357    1.40971449977495   -0.03892384882710
O           1.34639033960715   -2.08065452584277    0.37524590415850
H           0.38067651203982   -2.06534138945762    0.18583709789483
H           1.45885971760342   -1.35423969348349    1.02346463201377
O           1.89452366780920   -0.94770491453465   -1.79009937509717
H           2.18072087313203    0.00834481195192   -1.45855835837328
H           1.78801765061166   -1.52298076776258   -0.91761827423514
O           0.96271431341564    0.24554656037580    1.68019502469211
H           0.48283440821571    0.56109620050903    0.89593023565618
H           0.26785647391717    0.05592115360168    2.32209154277598
O          -1.77663275858046   -0.50249630978339    2.20147521092094
H          -1.55814586384693   -0.90070974837579    1.32243400111491
H          -2.33024466406844   -1.14153463170394    2.65217280785864
O          -2.61565116908486    1.64598457459510    0.73465706139436
H          -3.06384957084496    1.16598439165313    0.01454396978292
H          -2.50136022942620    1.00859239074739    1.46423567482176
N           2.38570934854783    1.38216824616029   -0.84413112702103
H           3.06458112491339    2.00283291877111   -1.26466040969938
H           2.58707103734277    1.29525262892239    0.14575012149513
H           1.46057182925469    1.79015025188527   -0.93702829012899
