    26
        -50.44600994  Gyration_radius:  2.52964121977 Dipole_moment: 4.455
 S          -0.03985194856399   -2.28183160807643   -1.07889986684102
O           0.48171413067552   -1.70127618242002    0.14352195297288
O           0.28223728234279   -3.63560356728546   -1.31990033286381
O          -1.58316068431293   -2.10657149054931   -1.05989652463638
O           0.41222437652794   -1.37556260734327   -2.24583717209112
H           0.70167460751233   -0.48345681272474   -1.84431574266234
H          -1.83040586117082   -1.21735700930593   -1.45359680099986
O          -1.58926299824483   -0.72891511667664    1.51663609391067
H          -2.34277053307413   -1.24058583865370    1.21452580688465
H          -0.80303576233251   -1.16356606739099    1.13289603808596
O           0.87958932428579    2.69177694554367    1.48832950133632
H           1.50396183802231    3.24925349081686    1.02224442938075
H           1.32019554467825    1.82563621296358    1.63274308093942
O          -2.04900650332628    0.23889308555458   -2.03498567367764
H          -1.89949141429107    0.87661218511421   -1.31315759208255
H          -1.38510347372387    0.41150105806211   -2.70804252179925
O          -1.15779807357298    1.53600405143119    0.17219486516223
H          -1.38653052816586    0.78784319276632    0.77070373417946
H          -0.65385469791825    2.16120367899225    0.72882405639805
O           1.02636739915816    0.81724999940820   -1.13285994249262
H           1.62861112810323    0.58235921962770   -0.41905270780328
H           0.19798129099232    1.12557173530705   -0.67591442403441
N           2.00660283306524    0.16978436373419    1.76040954746918
H           1.76369050584239    0.06950684417660    2.74018155016167
H           2.99893530757883   -0.02583932718653    1.68618449242297
H           1.51648690992442   -0.58263042588580    1.27706416263247
