    26
        -50.44631314  Gyration_radius:  2.50931307629 Dipole_moment: 6.924
 S           2.24681059433137   -0.91614561338831   -0.66791194637726
O           1.65086450283904   -1.86262503806593    0.24213369024553
O           3.08113018635650   -1.43729981815461   -1.68614035195075
O           1.08504904892340   -0.06781870760391   -1.28991537468892
O           2.99452384289225    0.16872155085466    0.12626092125719
H           2.32135610908980    0.51052692231382    0.78511721777125
H           0.20417046219122   -0.58655583501158   -1.35841804564194
O          -1.19934050634937   -1.17187638997819   -1.31422278003737
H          -1.70233388156516   -0.43489527171427   -0.91881731627223
H          -1.16176623652202   -1.86542601199848   -0.62887643359521
O           1.09581120781554    1.09263349221693    1.58652533668345
H           0.64254684150891    1.75063472536119    1.05421604445922
H           0.38326464180853    0.48195694431811    1.90607167135495
O          -2.20345904431962    1.05222425994378   -0.06348931491583
H          -3.04524188443213    1.48441708944629   -0.21222649929672
H          -1.49699074333408    1.66132457852151   -0.40272256096905
O          -1.07758951781407   -0.31019983985348    2.11841384873128
H          -1.63697683206153    0.13457102546309    1.46473614719139
H          -1.00947207100382   -1.23454786951623    1.83267413618072
O          -0.71582488465297   -2.74195938483922    0.84284577530088
H          -0.69490396066366   -3.67541223908436    1.05767784500903
H           0.22033302818417   -2.47587676761691    0.67742332472315
N          -0.20779093959094    2.53582248124309   -1.11812151241297
H          -0.53471508243606    2.85808362014876   -2.02164497748416
H           0.42698485632626    1.75831210335597   -1.29771412880340
H           0.33356026257044    3.29140999358615   -0.71387473641310
