    26
        -50.45388413  Gyration_radius:  2.49508109172 Dipole_moment: 2.532
 S          -0.65903547080207   -0.36255794137901    1.09227151762383
O          -0.35873893112187    1.02642261354921    1.32382816914219
O          -2.00389696741636   -0.60807137439701    0.65135833673694
O           0.33888701972059   -0.91729529633017    0.05147193314342
O          -0.35123455221389   -1.20445946339869    2.31968935717633
H           0.67355333391491   -1.25802952552894    2.39306964790621
H           0.15621739766299   -0.43927256170717   -0.85625811060725
O           1.53408923104830    1.92755772447150   -0.34506002684777
H           0.81526787532989    1.72064602681434    0.28195542761124
H           1.29247687164792    1.52408537523975   -1.18404179779131
O          -2.10075190282356    1.74905273408837   -0.71769570838029
H          -2.35963123206381    0.95582647957869   -0.22117731691861
H          -1.67351797954159    2.31861134434593   -0.07112966756331
O           2.16305350894837   -1.36918665708710    2.26110591350829
H           2.59220075322995   -0.52704321273718    1.94874071535417
H           2.29603022121289   -1.99822009412675    1.54748032430425
O           3.30168672395929    0.80001314272354    1.30447944861395
H           3.46669064426846    1.48957599989295    1.94974916620732
H           2.73697822660429    1.21120034711209    0.61024253286128
O          -0.31049347192658    0.28918281396586   -2.04827895676999
H          -0.92517008980001    0.98257480981460   -1.70872612109852
H          -0.92695835331237   -0.41897276624424   -2.36839307341331
N          -2.21726376502778   -1.57113237460431   -2.15371461242886
H          -3.09523856263229   -1.32861684942413   -2.59612664152389
H          -2.33235178126443   -1.43498724096749   -1.15087993172021
H          -2.05284874760008   -2.55690404367417   -2.31396049509996
