    26
        -50.46815426  Gyration_radius:  2.47595692359 Dipole_moment: 5.893
 S          -0.26415195033930   -0.17458950962626    1.08964808861217
O          -1.29438712679178   -0.63012803792665    0.16574200786658
O          -0.64956477487128   -0.61115222136963    2.51889714402083
O           1.04294832570349   -0.73177024528536    0.76691946943621
O          -0.20254049256261    1.29303885636009    1.10888273653789
O           1.68929559312588    2.57838160842748   -0.27195224139428
H           2.52238915368042    2.73583502316690    0.17439869387750
H           1.12347969436123    2.09646276154101    0.36799424197853
O          -0.95844632541841    0.18926761621269   -2.31516648201982
H          -1.07681813107841    1.52204738845257   -1.74978300808368
H          -1.22230194765715   -0.30136496814689   -1.50505721789055
O           0.92511600630369   -3.37204839682133    0.92123971476388
H           1.04783024845072   -2.40710315405852    0.79063337875696
H           1.63883597383452   -3.65704952997323    1.49403059939983
O          -1.58427717929751   -2.83647902835338    1.68271055012509
H          -1.83770791756971   -2.32450076018447    0.90017707640640
H          -0.74777443438257   -3.28398402856977    1.43384807873843
H          -1.05254211737330   -1.51953318880883    2.37448984848971
O           1.59589055102744    0.17957504018122   -1.69429600119591
H           1.81377196469132    1.08837080522424   -1.43611679114453
H           1.49950363139192   -0.29700876288270   -0.84749132996396
H           0.02627696596341    0.08347748824273   -2.33532306063876
N          -1.04324950402330    2.41973935139574   -1.08771385603065
H          -0.87455308895683    2.00645928379712   -0.12219727154242
H          -1.89469945130180    2.96914218367904   -1.11953861639620
H          -0.22232367691093    2.98491438532851   -1.30497573270896
