    26
        -50.47104615  Gyration_radius:  2.54706175772 Dipole_moment: 4.085
 S           0.04301915821364   -0.05602889487691   -1.10078400595318
O           0.13344299445815   -1.48257221741401   -0.87388800554352
O          -0.78131905386737    0.59179165584760   -0.06151678028639
O           1.36453623238303    0.56600353103784   -1.14983675427987
O          -0.66653939468309    0.17931054772678   -2.45493648879538
O          -1.12057187871971   -2.35436992624230    2.64579931340009
H          -0.77537143518285   -3.24749597981363    2.59941212014263
H          -1.65927933191075   -2.22986242084513    1.81911489287352
O           1.28991365344690    3.16400607737951   -1.65139143220858
H           1.41031488995125    2.21865069890049   -1.41436138030144
H           1.84202737773312    3.31646060232984   -2.42020534836506
O          -2.19904050376030   -1.85395711557914    0.30134634535487
H          -1.36911695990528   -1.87474723350392   -0.22233615851798
H          -2.47385399818418   -0.93309768290454    0.27046451362416
O           2.47622290436036   -1.10635621247825    0.55246205584373
H           2.29843961777552   -0.40900376603451   -0.11598912872605
H           2.11359891033473   -1.89927024801023    0.14199929069837
O          -1.31978212679971    2.58506337346538   -1.84306295120869
H          -0.98886019886858    1.12933981097725   -2.41614532777691
H          -1.41789714445497    2.21598601593034   -0.95417120467861
H          -0.44289228072581    3.02588745086582   -1.83837856287095
N           0.45598865938145   -0.29953393456594    2.06613640895684
H          -0.09970426501325    0.15435823063292    1.28197181135798
H           0.64800735832622    0.36586490482129    2.80767178191135
H          -0.11164986902752   -1.12029250229014    2.41958419044493
H           1.35036668473855   -0.64613474534060    1.61104085489933
