    26
        -50.44549142  Gyration_radius:  2.68770068652 Dipole_moment: 5.489
 S           0.70491231223129    0.67566236016818   -1.85983859199747
O           0.50787465141827    1.87424000057403   -1.06473491038219
O           0.48323731332271    0.79930031067331   -3.25259386454164
O           2.09872417577648    0.10602412349280   -1.53731402124633
O          -0.24542166357678   -0.42147797316466   -1.32200175827142
H          -0.10090312977710   -0.54701671139353   -0.31252572954238
H           2.60855415664545    0.81426237131037   -1.00836787780383
O          -0.51640212687953    1.99217329679368    1.34862998318561
H          -1.19363216015221    2.66756271429488    1.40129969324497
H          -0.17301109727663    2.01168570759574    0.42421665880563
O          -2.03116485166685   -2.43697358035223    1.32420872374116
H          -2.29438469149436   -2.41672384542332    0.36690402291813
H          -1.77901787333889   -3.34094989649168    1.51837767683630
O          -0.06104651437549   -0.68704440216960    1.18786573394045
H          -0.77663511954871   -1.35458576428733    1.34498165205877
H          -0.43178258645009    0.17260300380662    1.45399478583758
O           3.06740962669710    1.99199855169331   -0.16432650942073
H           2.33348117565861    2.56576337404406   -0.41847629163840
H           2.86789294303990    1.69932207337884    0.75757635831591
O           2.02517503501047    1.11034310465460    2.12655343379761
H           1.19001651205284    1.60100859789951    2.11318941584731
H           1.78232783898551    0.19075329356824    1.97383596587539
N          -2.51581449485557   -2.32597397966588   -1.32936671319921
H          -3.39073101505348   -1.90018048913471   -1.60975644456557
H          -2.38979090900013   -3.16185953040267   -1.88716385428915
H          -1.76986746740904   -1.67991672145815   -1.57516752752071
