    26
        -50.45601971  Gyration_radius:  2.52007636618 Dipole_moment: 3.842
 S          -0.87321959787889   -0.99701889719687   -0.52713522742189
O           0.40101831107639   -1.63445523452716   -0.24597459621024
O          -1.98679511941233   -1.63320419549774    0.11201785253062
O          -0.77152378546742    0.47558700221886   -0.05268532896468
O          -1.10295051487479   -0.86619475237500   -2.00214701399980
H          -0.36189918367560   -0.19386690808403   -2.47072469158710
H          -0.58976222498063    0.50049150790243    0.97885330396860
O           0.55687227860539    0.68232401087651   -2.94667466114454
H           1.37253890808429    0.45252304391017   -2.45065791450664
H           0.25847363960251    1.56879369395426   -2.59223209022911
O           1.80660929024770   -1.17717901346961    1.97314665401358
H           1.34921584024902   -1.45737292838896    1.15396635699251
H           1.82642154793369   -1.94881414436920    2.54206125683147
O          -1.83191450572064   -1.72332089423016    2.74844664433814
H          -1.91647153931233   -1.82664395969640    1.77583841336966
H          -2.72623245184881   -1.73550918209629    3.09383819013001
O           2.38353106335780   -0.13491617622918   -1.18905189468185
H           2.77949349894858    0.22351082919080   -0.39212433981818
H           1.74400229271628   -0.81003839012506   -0.88836123816324
O          -0.29185736659819    0.41168313337417    2.39853479683931
H          -0.90539425222306   -0.29352973860637    2.70837661648020
H           0.59426457286707   -0.01483553027044    2.39736792735964
N          -0.31077986678838    2.87695574314338   -1.71425849879727
H           0.34070779968817    3.56711926062030   -1.36369412591429
H          -0.64347081906948    2.32428231610936   -0.92973299815650
H          -1.10087778517514    3.36362942348871   -2.11699340332293
