    26
        -50.44659245  Gyration_radius:  2.5658978209 Dipole_moment: 2.925
 S          -0.66389149057701    1.90590328874448   -0.91871218061460
O          -0.69148372066244    0.93172437173684    0.16007808301836
O          -0.39008219052218    3.23495455684155   -0.52025138671045
O           0.35536988887490    1.40018639799940   -1.97855737496549
O          -1.97706891086591    1.83016688499169   -1.70161383661122
H          -1.97957563357764    0.92743677199089   -2.15694908528707
H           1.14642021454834    0.91311655382262   -1.56707314804153
O           1.13458631075241   -1.29578411222873    3.00482500024647
H           0.20642741899011   -1.39321645073878    2.67323301085854
H           1.07191808107678   -1.10214012432675    3.94112705246551
O          -1.68426820627335   -0.44268191851112   -2.84242529103346
H          -1.09290094528148   -0.23779335230637   -3.57086757034195
H          -1.15250610350736   -0.96543629844665   -2.19312914405628
O          -0.12430707952477   -1.43930011389093   -0.94017834156438
H           0.83047368826170   -1.41146522966271   -1.06163051696668
H          -0.33528070972795   -0.65546776064577   -0.39763607601291
O           1.70951370087789    0.81292411411818    1.46590124049802
H           0.80022691356767    1.05769527316876    1.23493296608201
H           1.62826843497355    0.02557739084025    2.05473562771172
O           2.30202973943814    0.12968212255887   -0.92617639983992
H           3.14312250109054    0.51889632624778   -1.17218443258127
H           2.16579204076165    0.35080912041032    0.05507772429508
N          -1.38057307500383   -1.30625678808189    2.00438844242061
H          -1.38513551048696   -0.39507133082446    1.55512071303500
H          -2.23889769855065   -1.39573881428728    2.53364053389564
H          -1.39817764864513   -1.99872087951649    1.26432440008818
