    26
        -50.46483354  Gyration_radius:  2.46661525799 Dipole_moment: 4.915
 S           0.18930074440203   -0.59256363892031   -1.59408528961449
O           0.46310918626875    0.81531944874390   -1.25148322884454
O           1.37104753523227   -1.21679167331968   -2.15558894646448
O          -0.31470551129257   -1.28698786993653   -0.40957832413790
O          -0.92036438388321   -0.61968431915559   -2.67241015453372
H          -1.79220649721201   -0.45523184656609   -2.21379590340273
H           0.92123370656372   -1.64671707065233    0.79226486692899
O          -1.63466492887149    2.13674750941698   -0.50347781797332
H          -1.66132405752319    2.98601570399401   -0.94590252456462
H          -0.79987145687385    1.68935348671474   -0.80455581588975
O          -3.01712924951078   -0.06452440463199   -1.24527738008033
H          -2.95469430214419   -0.62433179427608   -0.46454854051814
H          -2.72911491455788    0.82726102469112   -0.96285120589166
O           0.50957153534435    0.13847455832920    3.13101972862472
H          -0.30932214981479    0.21172377289984    2.58105566052204
H           0.23458212514731   -0.24482347964957    3.96505420946397
O           1.68189032234429   -1.49921706983915    1.39118828253955
H           1.33404598101006   -0.92481527332780    2.11560393347963
H           2.49413195621081   -0.63887157485797    0.47046472506947
O          -1.55044663316140    0.13991920018471    1.45699007877190
H          -1.11720810769320   -0.42699734671516    0.78142902569842
H          -1.64176679411232    1.00991916595061    1.04818221061191
N           2.80553745976756   -0.04606484873451   -0.39629574184583
H           2.14447875455564    0.74237648294972   -0.48975045423995
H           2.51333346409032   -0.64213539099580   -1.22910765738030
H           3.78055622572546    0.23264723771450   -0.39454375631173
