    26
        -50.45361845  Gyration_radius:  2.46193518168 Dipole_moment: 1.807
 S           0.77248458888679    1.49983586016667   -0.58822933175093
O          -0.33557314483487    0.69565142939747   -1.03923046849326
O           0.43225556226489    2.84883008067728   -0.25573778488347
O           1.42221349527261    0.80903600679147    0.63885596780504
O           1.90294767384490    1.48182521729575   -1.60484086181978
H           2.19743627402359    0.50072046138955   -1.64003463083115
H           0.78617657261313    0.21805727387699    1.15577832946921
O          -1.31585037036768    2.71697908031952    1.76263857204265
H          -1.74774778832014    3.56633598396812    1.87003893214704
H          -0.64713278025027    2.84283734498426    1.05976637440415
O           2.60566759375188   -0.93655656206495   -1.48219377327986
H           1.97384565090652   -1.50001721704682   -0.94233172739970
H           3.44406899363897   -0.96615674643907   -1.01613480771460
O          -0.18879811106960   -0.67492620680280    1.97136156119675
H          -1.07056904619393   -0.40372101530733    1.56724191949539
H          -0.20048419580615   -0.35997215125742    2.87771248118669
O          -2.25385485668642    0.36071253077070    0.81638546762140
H          -1.76355173395591    0.46312416633768   -0.01887248493830
H          -2.17518903489384    1.23189232859753    1.24880230365954
O           0.99192340463337   -2.38175117391825   -0.02890179062448
H           0.70584853287177   -1.96150549962714    0.79007542550801
H           0.18002987491921   -2.42333101849563   -0.59232709120077
N          -1.23301109062554   -2.04597343741791   -1.50637181426172
H          -0.99212247271839   -1.06307223496734   -1.60490059631726
H          -2.11208399647120   -2.09266355272595   -1.00605381564598
H          -1.37892958544956   -2.42619095849592   -2.43249635538508
