    26
        -50.44540147  Gyration_radius:  2.5013945959 Dipole_moment: 5.273
 S          -0.23352784097094   -0.15159736907906   -2.49607710230516
O           0.81740755048951   -0.95216985354632   -1.94144957191452
O          -0.84557208827195   -0.58340281980532   -3.69814286581604
O          -1.34438692503232    0.00405185497550   -1.37210106306069
O           0.22080627377208    1.31090555984278   -2.63612029341928
H           0.66523164682286    1.57679526223482   -1.76857955366370
H          -1.31038097822522   -0.76370058752309   -0.71755776320379
O           1.08234389047985    2.02008955125414   -0.33424639115080
H           1.40604965785237    1.34121598500354    0.29387029170618
H           0.23232370015440    2.31861470090712    0.02612618157708
O           1.70303427267024    0.26114809175773    1.62958007860573
H           1.70813644258362   -0.66710190220095    1.21998486652588
H           2.52090621701299    0.35493078824130    2.11842190701388
O          -0.95983418249158    0.22083406605786    2.20205797842715
H           0.01298738480806    0.27796916904238    2.16548829507993
H          -1.28273089530568    1.00008030846786    1.72736690403802
O          -1.62034725095088    2.15426670741651    0.26571267533253
H          -2.24081798580152    2.82346688793933   -0.02635215939380
H          -1.63593763589941    1.44065586937760   -0.40107333932467
O          -1.43677898405735   -1.72315633010502    0.51915068319099
H          -1.25582417909865   -1.05227145323767    1.23959733700751
H          -2.35143081578482   -1.99248547137606    0.62277548553690
N           1.60124281995765   -2.09596014253303    0.51412955028296
H           2.35257488616651   -2.77358462522282    0.49369005464828
H           1.44176572916920   -1.77701154156860   -0.44240909033114
H           0.75275930995038   -2.57258272631987    0.79615691461075
