    26
        -50.45816389  Gyration_radius:  2.53815261293 Dipole_moment: 5.977
 S          -0.22277670066172   -1.20769115255500   -0.84775218138116
O          -1.29982063794345   -0.42272671445927   -1.47615073185479
O           0.21182503971200   -2.32713557614221   -1.61703550537535
O           0.87960319377008   -0.27408457755070   -0.50249958585516
O          -0.79616077490574   -1.74017249021713    0.50375195357044
H          -0.64155739611842   -1.03568009161625    1.18567031051827
H           0.81237873618318    1.07107803769131   -1.55373981278008
O           0.06504791206210    0.19990814730453    2.00358177778019
H           0.56048752167135   -0.42672309863802    2.57934004685729
H           0.63315827966753    0.32442956485273    1.22404800875825
O          -1.98999962121790    1.35735719705640    0.44447431622107
H          -1.89085274259006    0.64777767722314   -0.22049084704450
H          -1.46506556348752    1.09321917192304    1.21140865130447
O           1.32162378394963   -1.95335265425605    2.93570889218620
H           0.70403072386997   -2.65549600615208    3.14726071181115
H           1.73522841139723   -2.20970301826432    2.08423596531499
O          -1.00761752539149    3.45046652523768   -0.79362780272193
H          -1.40825770037506    2.75008140764312   -0.21023807121604
H          -1.73979203521192    3.98684481743618   -1.10171685650107
O           2.13714028311659   -2.47859098032886    0.39558058730080
H           1.96431167464168   -1.58683508373208    0.05696643024237
H           1.62706430731147   -3.04152723833586   -0.19799343401857
N           0.14212346482188    1.54577923791723   -2.20125258518444
H          -0.23287644415725    2.42970087467641   -1.74886416823918
H          -0.62918675694609    0.80515880397518   -2.17513691474242
H           0.52994054682612    1.69791722930061   -3.12552915492868
