    26
        -50.45139059  Gyration_radius:  2.52588828391 Dipole_moment: 6.298
 S          -0.13064740395828    0.41567535746264   -1.20614228677019
O           0.55762129028199   -0.66871941779729   -0.54210655828922
O          -1.12584169311605    1.07315952706220   -0.40848685601822
O           0.89742236982774    1.43905562353292   -1.69839711844526
O          -0.75832273336916   -0.11740941888727   -2.49029775482738
H          -0.01291869954702   -0.72068006314270   -2.91366058985044
H           0.99773660999173    2.16118651649300   -0.94853463989217
O           1.55000247216889    0.79598181173594    1.58580124184371
H           0.95288725731630    0.52282788262755    2.32183037746092
H           1.39252541765306    0.14927938327643    0.88464374108083
O          -2.57957205816798   -0.07407009328794    1.53268327367509
H          -2.07247132212224    0.37066336227846    0.82727856028041
H          -3.49472513582273    0.18283448922339    1.41223876314704
O          -0.72059235940195   -2.23540141401219    1.39271137756586
H          -0.20698729197504   -1.81108038726003    0.69132213525243
H          -1.57141072580685   -1.77751825681522    1.40511228074811
O           0.92773628254422    2.94678189048800    0.29259426485826
H           1.26678264142202    2.23824513131958    0.91621530557933
H          -0.01945436982116    3.00250792068569    0.45365971477568
O          -0.29125493700209   -0.22703949246909    3.23288397126358
H          -0.23758466070992   -1.12649963104680    2.86362069675160
H          -1.15978550352200    0.08624651652061    2.95097041986679
N           1.23891587152069   -1.53228874803423   -3.15789740727315
H           1.14356564335376   -2.44690867143470   -3.57911290792750
H           1.49392910946576   -1.63192974183454   -2.17989664129327
H           1.96244393874958   -1.01490007666040   -3.63903338359504
