    26
        -50.44253091  Gyration_radius:  2.56371687561 Dipole_moment: 5.951
 S          -0.59668198386395    2.41989798700213   -0.78283285598887
O          -0.43851526952363    2.42468205012499    0.65268314291679
O          -0.30716640411912    3.61701224262577   -1.47503063113308
O           0.20444925265860    1.21628574533450   -1.34675693667963
O          -2.04817674243016    1.97293137121352   -1.10891074536843
H          -2.24546368692466    1.16216796136886   -0.57951787392783
H           1.15034991503297    1.20023183192811   -0.91873881195182
O          -2.52041676669728   -0.15425951667376    0.39391344059710
H          -1.81978735679630   -0.11445066798307    1.08486550989464
H          -3.36495635925906   -0.06991180992276    0.84090727591719
O          -0.53848390629696    0.31598094737711    2.11945890888176
H          -0.40183469612455    1.14916152415250    1.59230211973227
H          -0.59336623757491    0.59358600720912    3.03576561968481
O          -0.93849550432579   -1.33554383330110   -1.67949588714718
H          -0.51439381915420   -0.47635277728155   -1.80461460111281
H          -1.66762738736056   -1.17483363843245   -1.07044210704292
O           2.45512016882145    1.06527953935341   -0.27543278949442
H           3.10533669611978    0.71730896282894   -0.88928622820893
H           2.30545947229732    0.34498858248109    0.42277675688632
O           1.89075023075361   -0.83716325406153    1.35829531832127
H           1.66619983858961   -1.60193166515247    0.76578441237517
H           1.04517126013546   -0.53622154153332    1.72571311936769
N           1.15089744948457   -2.79839946705011   -0.32878608735184
H           1.85488170150463   -3.11411427295957   -0.98406490698473
H           0.39909648965940   -2.36692049110469   -0.87141539229664
H           0.76765360538435   -3.61941180757580    0.12286025017465
