    26
        -50.44679686  Gyration_radius:  2.58928153345 Dipole_moment: 5.321
 S           1.24262915827657   -0.11243722150978    0.27829723127334
O           1.07467892576762   -1.02891809610026   -0.81888170393564
O           1.99235874167944    1.06893604401503   -0.00392706654248
O          -0.16946570698006    0.27843430809276    0.79682325171813
O           1.87519604941167   -0.80434576469059    1.48516142244289
H           1.26575907532541   -1.55236295324838    1.82144818098207
H          -0.83593032033318    0.05468728839403    0.03707545661378
O          -1.50354934561753   -0.27819104076032   -1.24214618469115
H          -1.64474654045106    0.60495423387118   -1.68117887970113
H          -0.71029118824169   -0.64997645711387   -1.65193488821418
O           0.54076755573423    3.12877404945228   -1.08122828240766
H           0.31358948150343    3.37121686482054   -0.16585474567649
H           1.22722281739546    2.45313359865663   -0.97265086487911
O           0.38605988291640   -2.71546220529469    2.23688571445540
H          -0.11271154304289   -2.95550167572546    1.39541167553793
H           0.94145804827893   -3.46608530590037    2.45854642889123
O          -1.59397686349527    2.12071257354853   -2.26824984838492
H          -0.76866927071007    2.53554465219268   -1.91003500146198
H          -2.30783928193334    2.72472272666978   -2.05850361004554
O           0.40024321334718    2.89925441328303    1.64969595259639
H           0.04676267605537    2.00568553523904    1.55149452217959
H           1.35534439045379    2.79486942674078    1.67542957302782
N          -0.69401046531766   -3.15649300041955   -0.11795558230851
H          -0.73242702935693   -4.04822930438329   -0.59513743732218
H           0.00190484066021   -2.57330273825652   -0.58194780488812
H          -1.59035729132422   -2.69961995155390   -0.23663750925138
