    26
        -50.45086753  Gyration_radius:  2.50532884185 Dipole_moment: 7.623
 S          -0.65371814228066   -0.58568496247631    1.95773194254281
O          -1.05640116719136   -0.69747397320677    0.54784760342343
O          -1.34783704505293   -1.47953209706581    2.81866596508465
O           0.82784975449625   -0.75409016232961    2.02076996127183
O          -0.93736067263934    0.88924596686316    2.38253408156319
H          -0.32160809450714    1.40605178795303    1.82847745486944
H           1.26692298489830   -1.82135554552356    1.17113231062436
O          -0.90220378215068    2.56689730124193   -1.61750513523341
H          -0.65234585372035    3.14585036192467   -0.89342454220719
H          -1.65129997932835    2.03035705783196   -1.26844441904408
O           1.12215883010664    1.60500756706004    0.85047753674722
H           1.19947254830590    1.40649991313162   -0.09602755377220
H           1.32242006293247    0.77086699085872    1.30847763054833
O          -2.74300687039584    1.04842572407838   -0.44805356869718
H          -3.42138603721890    0.52857657006590   -0.88094671240035
H          -2.15229637947780    0.40431497518656    0.00394876986916
O           1.17264259521701    1.00197789543631   -1.91118327430266
H           1.73085085115412    1.37370060908042   -2.59528667452095
H           0.34571074727143    1.55952081491924   -1.89748652802239
O           0.26749455134074   -1.52294763482207   -1.54479733328856
H           0.66888802146063   -0.67457892058063   -1.81854006928866
H          -0.40467125854903   -1.25109556797985   -0.87723110478974
N           1.54539777792455   -2.58627160860731    0.42118431404028
H           1.10387411547114   -2.21471277363786   -0.50809254264869
H           1.11675471207284   -3.46756190268472    0.68510955993678
H           2.55369773981778   -2.68198840670649    0.36066232767712
