    26
        -50.44337784  Gyration_radius:  2.58340697828 Dipole_moment: 8.957
 S          -2.07615597269345   -0.12443875357792   -1.54071398377255
O          -1.36035281060703   -1.06576694646109   -0.69534812629327
O          -3.40104344200757   -0.48966302757809   -1.88285875532045
O          -2.03936916657623    1.25738812508584   -0.78270679139532
O          -1.24925234070090    0.18306813260258   -2.77729070275988
H          -0.41077993571059    0.79210762932363   -2.47180466261212
H          -2.06373980745823    1.04479214270492    0.19074838642061
O           0.46894303174111   -2.13710549130372    2.30468248200454
H          -0.47435276041263   -2.28822555337945    2.39278211234274
H           0.61516132984486   -1.19285438740193    2.47402472645910
O           0.88972648211812    0.63311223341994    2.25886280849569
H           1.33566709380515    1.25039928661437    2.83955013221181
H           1.40290613409108    0.59580445857426    1.41931414605943
O           1.12455721806613   -1.97191198062675   -0.34424062638596
H           1.00876192341860   -2.26265247570740    0.58158423419731
H           0.22169503677561   -1.75222315233716   -0.64248172631988
O           2.22945315597053    0.32209223972743   -0.04179291458740
H           1.82017529272070   -0.59176716957946   -0.21318553834676
H           3.17707187224685    0.17861846288338   -0.03809972637655
O          -1.76454835301988    0.22730461269331    1.57132241131761
H          -1.62357343573024   -0.52462851488733    0.96748967158991
H          -0.88359252133385    0.47709460361159    1.89783801641617
N           0.60347912917412    1.69154721884599   -1.96809928180423
H           1.13535457422950    2.12440805196645   -2.71072447785417
H           1.23846986221059    1.22631053045158   -1.31769027156666
H           0.07533841986747    2.39718972433506   -1.47116153213232
