    26
        -50.45564899  Gyration_radius:  2.41855690663 Dipole_moment: 3.082
 S          -0.04323043728984   -0.63240288383075   -1.68070456498633
O           0.66259975583211    0.51071382082288   -1.15374392266965
O           0.67700523716312   -1.41795638405541   -2.62365703569715
O          -0.53913415257693   -1.48739096354923   -0.49996577206607
O          -1.37267353497333   -0.15240373782994   -2.30773181980587
H          -1.82342002287110    0.44760659981880   -1.64852893294217
H           0.25902368092644   -1.56490345119939    0.23059580357878
O          -2.45782550014101    1.45331448096564   -0.55606999373481
H          -1.65230328889076    1.91776443222322   -0.15984880330683
H          -2.97082165781080    2.13010844683909   -1.00127414661770
O          -0.26997811684697    2.42854824967277    0.40301421965342
H           0.24241597079821    1.88614087949449   -0.22870650591883
H          -0.10918754551142    2.00143315298785    1.26001256942961
O           1.30533522614721   -1.47966227116825    1.13052060820299
H           2.05756524255373   -1.29949335292170    0.48942908433239
H           1.09007900395175   -0.65205596689347    1.60477396257321
O           0.03393670739091    0.56910736525268    2.43372731530972
H           0.04103450975151    0.53861471657327    3.39145570170192
H          -0.83202617584769    0.17538204721377    2.15023656553205
O          -2.21062140149216   -0.45316148195744    1.45779880301674
H          -1.82416014507590   -1.09648458283419    0.84609556092923
H          -2.59289626705878    0.23137498782484    0.89078932682268
N           2.98670415864159   -1.07787389053385   -0.85668714241664
H           3.11140752453731   -0.07889221767581   -0.96674478616375
H           2.35097347088421   -1.36735498030901   -1.59674465603751
H           3.88019775780619   -1.53007302493138   -1.00804144871801
