    26
        -50.45699092  Gyration_radius:  2.44976777229 Dipole_moment: 3.861
 S          -1.30312049805637   -0.55007126947804   -0.88251423153110
O          -1.03788585289422    0.89910140576632   -0.87224967571858
O          -1.66971983045441   -1.00301771033495   -2.20497313240593
O          -0.14995204545948   -1.29077815463337   -0.36665815718381
O          -2.47575484698589   -0.80444542881608    0.11816805155866
H          -2.40611629177215   -0.06815588492040    0.79078773230171
H           1.35302139389420   -1.00984745638221   -1.08530670066469
O           2.37614936323580    1.09753995073989    0.64569533329215
H           1.62010642912058    0.92690621534505    1.23372261107624
H           3.16083094576327    0.87298761213778    1.14939873004395
O          -1.90144112154264    1.25635307635967    1.58818676962708
H          -1.58585648881834    1.53700491871339    0.71104060329457
H          -1.08580835468890    1.08340790148728    2.09266345771882
O           0.51672742723940    0.47736119313794    2.66140415808504
H           0.23546988509456   -0.46363433835148    2.51752714067525
H           0.74144816958194    0.55462931190479    3.59001370206987
O          -0.42186660291954   -1.92767238409655    2.14727691867452
H          -0.26418581928752   -1.82159255873815    1.17947456920254
H          -1.37278511008864   -2.02387554691961    2.23668272271156
O           2.07558566800178   -0.50623285544948   -1.52314716337452
H           2.30838271462157    0.16372346194325   -0.84673196973828
H           1.17139313860754    0.13130587461614   -2.56467792709237
N           0.27733357172568    0.54319310531392   -3.03478116981317
H          -0.18504064624467    1.08526060437008   -2.25616407475194
H          -0.41840385468550   -0.22964661068611   -3.13916361657412
H           0.44148862701706    1.07019558696592   -3.88567468149482
