    26
        -50.46008906  Gyration_radius:  2.40510799548 Dipole_moment: 5.719
 S           0.21839271445054   -0.30598009721310    1.60616131769312
O           0.34423358600225   -1.37944627641594    0.62550607262908
O           1.47767538125321    0.25590582929431    2.01747894697604
O          -0.61512122787854    0.82321406073618    0.88716453035229
O          -0.65590467757883   -0.75397441202023    2.69633383608191
H          -1.52469068101600   -1.57275338903305    1.97280667611357
H          -0.03883155890641    1.60363471999661    0.51668738527133
O          -1.92256610666929   -0.65793507876026   -0.90024038400093
H          -1.18251519673486   -1.01191272737289   -1.40743151677318
H          -1.52499777271800    0.02355265971873   -0.31698409550165
O           1.11736934282417   -0.50101479589957   -1.71603630578459
H           1.96032884869027   -0.07131674868033   -1.52645130521433
H           0.86905295416801   -0.90855645431594   -0.85590420037240
O           0.74132887413883    2.60887591861263   -0.24680136695577
H           1.62603012494582    2.19545623645159   -0.27290441749703
H           0.35222079430713    2.47106151265791   -1.13982038605231
O          -0.36348646379410    1.61189425715132   -2.46862052879381
H          -1.27990909962496    1.34594706402864   -2.36893448383607
H           0.17878188568619    0.80158830343253   -2.34321601992938
O           2.89467451357925    0.95625423984246   -0.06373369158852
H           2.42823331006807    0.62648451927433    0.74377418186318
H           3.76829762052002    1.22033239939256    0.22885275012524
N          -2.11598008410164   -2.21718235853015    1.25913388880115
H          -2.15770955927912   -1.66709812728893    0.35270658598708
H          -3.03837030008814   -2.44535574913650    1.61686473612444
H          -1.55653722227241   -3.05167551582592    1.10360780425936
