    26
        -50.46893899  Gyration_radius:  2.40435532182 Dipole_moment: 6.281
 S           0.56287186697696   -1.73094229707345    0.01372762973981
O           0.93102360253128   -0.59846890455598   -1.02311110400045
O           1.81504242588214   -2.39413480739964    0.26512735736581
O           0.08711395099095   -1.00439998723432    1.21740787244739
O          -0.50020188371596   -2.52825970562793   -0.55055830264250
O          -2.06596553539159    0.52398997965284    1.27272746694322
H          -2.62207478010938    0.06095555985283    0.62887352756600
H          -1.33468453098900   -0.10963624151183    1.43265039051855
O           3.44952604723923   -0.37616629802078   -0.00993298640775
H           2.94552459043626   -1.21582554746937    0.15044191106480
H           3.46766756038361   -0.29119069506408   -0.96621473489790
O          -2.68980009807180   -1.17235214620427   -0.80535344934526
H          -1.88011851986424   -1.73631498026753   -0.66309177603179
H          -3.32616598226776   -1.74290515172117   -1.23891050441535
O          -0.62760648079290    2.37294195696324    0.13519275250692
H          -1.21522566146559    1.72010966936026    0.61934962295987
H          -1.01758076305082    3.23726084616956    0.27015068883303
O          -1.09727625409449    0.64437133942303   -2.01294971449060
H           0.13461709090849   -0.19532502711491   -1.47812029592403
H          -1.82488875204370    0.08497395025460   -1.67651900663967
H          -1.01464697692580    1.40173233532457   -1.41151577612418
N           1.58089899384627    1.04996348154119    1.17607113628005
H           2.40448193278920    0.65644549423686    0.62938710830170
H           0.95247483186693    0.17606441907362    1.32791572785197
H           1.88074943363418    1.45040888447303    2.05866465216189
H           1.00424388126737    1.71670386297005    0.63858982643806
