    26
        -50.46600830  Gyration_radius:  2.57560589913 Dipole_moment: 5.939
 S          -0.54040830222266   -0.20137441452700    0.45453519456983
O          -0.72330836325014   -0.09034749093932   -0.98634241854102
O          -0.82848417252326   -1.67041967314198    0.83202165327761
O           0.84691753353241    0.09974298220593    0.83614891568048
O          -1.47779487582848    0.65990848746295    1.16962331248562
O           1.17837601473626    2.30864041082789   -0.56175073288897
H           1.28260761379216    1.94622054765132   -1.44513358835873
H           1.17627915179448    1.52876272120550    0.03925587017690
O          -2.35202174930745    1.59858164228475   -2.17239965914142
H          -3.21773586285260    1.18746477955156   -2.19371677122171
H          -1.73435575333617    0.90166053563141   -1.84450015540515
O           2.03754636219795   -3.60613565521421    0.61681348402157
H           1.39608722804127   -4.27910748483836    0.38303962611322
H           2.00153266003024   -2.93462432851934   -0.09633258809227
O           1.62522493018494   -1.54967188080186   -1.10448974523174
H           1.60104965721614   -0.90155042223671   -0.37901197919621
H           0.76860360375612   -1.43364031441263   -1.53094686547372
O           1.01906509759747   -2.04103893607713    2.53486098896771
H          -0.21506376175238   -1.89570209255745    1.60720576342657
H           1.52479912580492   -2.69130250648288    1.99280059586549
H           1.35994862354548   -1.16979618207170    2.28966277816426
N          -1.36040677833619    2.89387917697668   -0.08287386206239
H          -1.49145947425379    2.04024198030749    0.56334939118191
H          -1.66990635055006    3.76181090256468    0.33938996032376
H          -0.32799417428517    2.88931821767242   -0.30127821352039
H          -1.87909800375460    2.64847900748758   -0.95993095511114
