    26
        -50.45639488  Gyration_radius:  2.4951445779 Dipole_moment: 5.176
 S          -0.14596564124136   -1.76183766030590   -0.31898884598919
O          -0.48499884512096   -1.48262989738960    1.09112663300757
O          -1.30177980452143   -1.94611166611339   -1.14926611523283
O           0.61392385357868   -0.46230699726781   -0.81128835397791
O           0.87666666332730   -2.79273947368284   -0.41363476183113
H           1.87217421853090   -2.17031259380853    0.60557041503344
H           0.29623084504562    0.36030307103800   -0.34097765791366
O           0.03853756767866    1.72153517652480    0.47820673276858
H          -0.38848157472419    2.19302334572883   -0.27968445885939
H          -0.70844604194184    1.44717974549482    1.04603478203198
O          -1.36316879343486    2.56849094948308   -1.58272607073929
H          -1.49140346372322    1.70078667589430   -2.03025121662132
H          -2.23925271137406    2.84097494699869   -1.30359128341182
O          -2.06258789625965    0.54693102811730    1.64885769126727
H          -1.61249512475821   -0.29448156118051    1.41248734312757
H          -2.46706860859029    0.40330083140512    2.50515327493761
O           2.67181270794634    0.93396790536304    0.65564691535555
H           1.81384549184913    1.38661179927340    0.75387162397600
H           2.80386760361850    0.86184381767302   -0.29349113071465
O          -1.79205371229327    0.16336944632099   -2.67931642681549
H          -1.27675097394498   -0.05523471627605   -3.45738886243349
H          -1.70501825895592   -0.61206407856754   -2.08370234316617
N           2.03594856065941   -1.54302913113349    1.46335481408583
H           2.41495143369542   -0.59922761786610    1.18094337955660
H           2.58623971566978   -1.98391519899217    2.19260948458042
H           1.01527277927712   -1.42442814678295    1.71044444793089
