    26
        -50.45648868  Gyration_radius:  2.44407991615 Dipole_moment: 5.691
 S          -0.75395395694499    0.88636711270531   -1.01836793713585
O          -1.13912454373656   -0.19436608172748   -0.12650061879426
O          -1.48402804881885    2.09549141086886   -0.84126681389485
O           0.74325644478669    1.16040920551306   -0.85249208660411
O          -0.89425781673301    0.39161936155136   -2.46040387266716
H          -0.25530376786656   -0.43277944241627   -2.56884272761399
H           1.28814080079147    0.36815601509412   -0.43002924373331
O           2.00792390255263   -0.70636570631196    0.22551636114885
H           1.40540844884928   -1.47745143498629    0.23934403559351
H           1.96410293915862   -0.32629038167174    1.14137066123844
O           0.00357450499520   -2.53543029121330    0.11836227996022
H          -0.54390047901368   -1.72013552175410    0.05278314155132
H          -0.27333103391312   -2.97792286541506    0.92288765942514
O          -2.83354446921995    1.12824739585362    1.56031559189891
H          -3.13790013730537    1.79578590502644    0.93923617216996
H          -2.35024530244449    0.48431972696089    1.01887046877899
O          -0.34534165333674    2.20601932472765    1.75921522993264
H          -1.23183141501804    1.87311314888282    2.00078442529432
H          -0.42085827193461    2.44678268502345    0.82998335631615
O           1.55632694936052    0.48726595358859    2.51555126411627
H           2.23110517097440    1.04624686008518    2.90391881295515
H           0.82408303367110    1.09592531968250    2.25818429422567
N           0.73654786387263   -1.57646914957670   -2.56323659695529
H           0.46337798918151   -2.23662555979331   -1.84134541020862
H           1.65714744623503   -1.22196620723679   -2.33328899920560
H           0.78262540184251   -2.05994677340971   -3.45054946770461
