    26
        -50.45192264  Gyration_radius:  2.49124217963 Dipole_moment: 5.221
 S           0.23509417332376    1.05269147032339   -2.10988526392882
O          -0.13955567960536    2.09293267801051   -1.16929410269890
O           0.88117848813050    1.48070098661728   -3.29396666045935
O           1.12039123170133    0.03957697716791   -1.32297662151324
O          -0.99031653578087    0.20412335352717   -2.46490577491247
H          -1.46674882985303   -0.11602769170971   -1.62045569274935
H           1.53918551443962    0.57163409714654   -0.54448913083659
O          -2.12860554906261   -0.51669474039823   -0.30823740913603
H          -1.54326943308901   -1.06868904373189    0.24916139408611
H          -2.23361014521906    0.32434690934414    0.17293580380664
O          -1.82678363187531    1.93713398365686    0.80891805260224
H          -1.19606069583990    2.07061592678016    0.05880416630188
H          -2.39036201346214    2.71153063773180    0.83021517192141
O           0.13688688830949    0.66055094051439    2.30577536732294
H          -0.03997502102661   -0.26832455375211    2.08131240907189
H          -0.63112566629702    1.16019085628067    1.98766370892300
O           1.92483250087928    1.47996065838463    0.56614419111230
H           1.35708714099155    1.17470173503799    1.32770901720915
H           1.50160364105980    2.27768337659361    0.22864065078472
O          -0.46065116606771   -1.86956943295306    1.35157225518535
H           0.29749231595900   -2.18687158541427    0.77959028797575
H          -0.76918527383339   -2.62446572269066    1.85432413807148
N           1.51169791432854   -2.63803210763422   -0.24853318221936
H           1.37991716042450   -3.44109330683978   -0.85063585059278
H           2.43408316762819   -2.70318345355819    0.16357062639978
H           1.49679950384278   -1.80542292844138   -0.83295754172593
