    26
        -50.44678096  Gyration_radius:  2.47603286545 Dipole_moment: 4.729
 S           0.27642883676000   -0.50971643955901   -1.90449029669379
O           0.62897625523368    0.36579220790117   -0.81325494394868
O           1.22114537466683   -1.54946534857759   -2.15531016554733
O          -1.12392646634995   -1.11775844511591   -1.62585142087898
O           0.02558462385360    0.32651569638696   -3.15654307993224
H          -0.58090301810512    1.07112078311526   -2.80390698115021
H          -1.26020360348912   -1.25702645726609   -0.64263000396976
O           0.02925021813263    2.13821669412468    2.23463691693638
H           0.78956685133701    1.57394613478578    1.99154750323841
H          -0.24405109234130    1.86167978833184    3.11065806273862
O           2.08257349535471    0.53670458003013    1.37118698554081
H           2.84980944018845    1.06106273172764    1.13445978759559
H           1.55521776384553    0.44852199338185    0.54723412269255
O          -1.88604138040329    1.28817426529772    0.47021944280163
H          -1.21505731240537    1.72250222035825    1.03401016689450
H          -1.78689407152311    0.34590959290016    0.64505446221101
O          -1.35623445789272    2.10579230504039   -1.99231864480094
H          -1.62652456369708    1.74308912296043   -1.10505133580683
H          -0.74366013959361    2.81762760330530   -1.79164802693675
O          -1.29817822902953   -1.54597772319687    0.90657560846226
H          -0.32900294750487   -1.84703171547576    0.94921589537277
H          -1.84175297001586   -2.31814843630067    1.07581102150022
N           1.19328239632718   -2.29456940380542    0.69704767687842
H           1.75097619900391   -1.58962139159651    1.16891347303938
H           1.33765567719237   -2.17262910584645   -0.30392290003373
H           1.55196310044704   -3.20471127286709    0.95835668378290
