    26
        -50.45477897  Gyration_radius:  2.80193507954 Dipole_moment: 8.809
 S           0.51032405144314   -0.60347825845809   -0.71183908381833
O          -0.81187517729430   -1.17161863907819   -0.43188703028506
O           0.52887545469832    0.82619713940520   -0.35979081398098
O           1.55628018876231   -1.31874184890113    0.00643883864708
O           0.79633945263258   -0.74581040696272   -2.21366764177881
O          -2.71953524369930   -1.42449408111094   -2.25719798365993
H          -2.60810345472279   -2.31886599023880   -2.58382650442076
H          -2.09482287551377   -1.33262691188260   -1.50556368572081
O           2.99939318098220    1.00086850166370    3.86693801733833
H           3.82983223168097    0.52713402577305    3.78218136130744
H           3.20687902913155    1.92664020837273    4.01034541269896
O          -1.35104916951411   -1.07782427452132    2.13836993754570
H          -1.61528951164160   -1.96616668599921    2.38237816472144
H          -1.25615579834456   -1.08844723454178    1.15407910145914
O          -1.01466057917997    2.42919089571376   -1.76984813239820
H          -0.48491665355688    1.85436414267344   -1.17151442455424
H          -0.42274836773782    3.12662930821755   -2.05669187701947
O          -1.11187245515858    0.35353541342766   -3.46124720687021
H          -1.85260926277054   -0.22427245777156   -3.17702351053790
H          -1.22146221457209    1.18925282785577   -2.95691443531457
H           0.05057855176276   -0.29506479681942   -2.76742064660971
N           1.03329338194161    0.08254412203861    2.07317324637656
H           0.13364416584629   -0.31532781988633    2.42397374550581
H           1.66420832249063    0.42637322259000    2.80731931480231
H           1.46053844610184   -0.65316303189519    1.43108706136130
H           0.79491428623727    0.79317263034172    1.34814876520908
