    26
        -50.45479424  Gyration_radius:  2.47134051659 Dipole_moment: 5.895
 S          -1.98667358370711    0.60826945272228    0.33611932851577
O          -0.86689464042538    0.11879443323073    1.12033472844814
O          -2.69599588620052    1.69895632722077    0.90778910732061
O          -1.45006606363528    1.02390703050527   -1.05422733007074
O          -2.92832995183638   -0.55876723854186    0.03775167524332
H          -2.35326715728622   -1.27706213585597   -0.46921580814018
H          -0.50078000493219    0.70148717424354   -1.26299711455221
O          -0.06754388394549    2.63576140811543    1.57251573519103
H          -0.38721868515864    1.72010353710115    1.64497012186411
H          -0.85054007653520    3.13898592542154    1.33385234923554
O           0.92417219500170    0.28523359556611   -1.56078541159073
H           1.43942103564768    0.85845806461477   -0.95983909983660
H           1.07950709096801   -0.62966658409291   -1.25289377527524
O           1.36792616266026   -2.17505842752949   -0.47527150975953
H           1.50746798133834   -1.71086145967662    0.39660032690979
H           2.15480443534280   -2.69921355726241   -0.63033869123417
O           2.15014063873225    1.80608750680091    0.33933416825825
H           2.78281204808611    2.51531073742195    0.21785079755923
H           1.36702888607243    2.20376609427395    0.78389100575781
O           1.66414219566674   -0.66761909556498    1.63723262461554
H           0.71627916801617   -0.46290295992943    1.69331324532213
H           2.07122825789071    0.15304300350094    1.32265406025688
N          -1.44530176125263   -2.17304105833303   -1.27030410183562
H          -1.31642832186930   -1.74859374175291   -2.18034613654370
H          -1.84542906561539   -3.09388854188644   -1.39387522090966
H          -0.53046100266642   -2.27148951019858   -0.83411505517026
