    26
        -50.46758601  Gyration_radius:  2.42047770044 Dipole_moment: 2.938
 S          -1.23306303139905    0.54122456601678   -1.17588087716854
O          -0.69421006543766    0.84906185206633    0.17469615685024
O          -0.85470828041584    1.53543041217760   -2.13229487271628
O          -0.78855064943455   -0.81202852936524   -1.54605257139648
O          -2.77770758657605    0.52680787477085   -1.05119066534017
H          -3.04861723019621   -0.08023017308457   -0.31763577119780
H           0.75769387468034   -0.71026144437841   -1.49555191874396
O           1.43537403616838    2.12862553052161   -0.83811934770930
H           0.59532967262505    1.83512614785623   -0.42940122285831
H           1.14166505173224    2.55860951973075   -1.64757243635381
O          -0.72501057334722   -1.63866342005749    0.99485675432984
H          -0.78555169758892   -1.98915559935242    0.09511437043543
H          -0.67797038606659   -0.66604477141085    0.83730465559314
O          -3.34182811525221   -0.98592866407553    1.03994142122427
H          -2.47476330084860   -1.40846400747018    1.21127361325095
H          -3.51797248330681   -0.40352549286818    1.78186388317189
O           1.42057357833470    1.14420234318522    1.97269647611362
H           0.55231595043463    1.11795121748936    1.54266506461063
H           1.91591892405511    1.82261275458639    1.50621735046081
O           2.00269320433831   -1.36275605999014    1.20237807503622
H           1.96869874764716   -0.49610106792914    1.66254123380366
H           1.11252468440078   -1.73608670650410    1.33419701282289
N           1.78003859097615   -0.50517038174980   -1.26429774749588
H           1.97960841572846   -0.92296854089829   -0.29195106997872
H           1.85665464221731    0.53905738207849   -1.19326268912461
H           2.40086403652074   -0.88132475145542   -1.97253486761852
