    26
        -50.44762799  Gyration_radius:  2.45599331676 Dipole_moment: 2.426
 S           1.13728105399572   -0.10629357114490    0.65878725197042
O           1.64148738314240    0.85052724836455    1.60703239168025
O           0.97527171057386   -1.44123179920932    1.14282554954538
O          -0.21593169767449    0.43927327432431    0.12053847565981
O           1.99167093789271   -0.10634092758661   -0.60834233264779
H           2.01268037190105    0.90213100950391   -0.88608232470466
H          -0.97758056543545    0.21820104510710    0.73675434963991
O           0.09932026677080   -0.23899780186378    3.53386133105649
H           0.73393421354414    0.31492743313913    3.04439777450496
H           0.41695854239911   -1.13834054868558    3.40729333189910
O           1.72363023881249    2.32341222722766   -1.07694610211650
H           1.48465601358146    2.58926718121086   -0.18449695370679
H           0.87547414629172    2.27324132769063   -1.60942574133500
O          -0.06846197832214   -0.72026363452390   -2.54990474016505
H          -0.63007735098746   -1.26227574353836   -1.94892588689265
H           0.80847434289071   -0.74585615523499   -2.15353088066150
O          -1.98081908336089   -0.07487310576648    1.91615651244378
H          -1.31080139679530   -0.18598223823294    2.63877991137692
H          -2.49401931385847    0.70565115443438    2.13765814055313
O          -0.42063107279354    1.91798305145391   -2.51277823884166
H          -0.41731828268213    0.92793844379865   -2.48387203528739
H          -0.31882032820735    2.15098727748367   -3.43775568327825
N          -1.21811599124832   -2.26583263088302   -0.61171680645967
H          -0.42624504597428   -2.20017610882739    0.02332076559182
H          -1.40288943806196   -3.24775336833707   -0.77663764126893
H          -2.01912770647717   -1.87932304989282   -0.12699043858426
