    26
        -50.46722939  Gyration_radius:  2.51263248237 Dipole_moment: 5.605
 S           0.23580676538777    0.78879064984360   -0.28723291816605
O          -0.62752212174251    0.01363354174606   -1.34334637764835
O           0.25748750510584   -0.06904356330124    0.90689219480525
O           1.54993827432941    0.99979824155770   -0.83887367324020
O          -0.51124152739816    2.01124227452083   -0.02457537849868
O           2.25071722402123   -1.60013351317484    0.06550902438129
H           1.54383281129125   -1.07652821383493    0.49223418781163
H           2.90295996939681   -0.95005169758467   -0.21065766443225
O           2.35062007489760    0.18318060674497   -3.23634797328618
H           2.04027879873881    0.81611912911545   -3.88514857415500
H           2.16096834070644    0.57833459391617   -2.35921482189490
O          -0.37552425288735    0.63660310177470    3.36709728690953
H          -0.12869529473083   -0.06068840302172    3.97613111224058
H           0.01428174641251    0.39522145847718    2.49641147719834
O          -2.38473746758105   -1.04107887774965    0.40028403240493
H          -1.73907016007974   -1.57541130910730    0.87214724903284
H          -1.89833765089493   -0.70089391953034   -0.37621171313347
O           0.87387424424665   -1.80485312880616   -2.20462082274541
H           1.41854595331123   -1.96878039019091   -1.39920056041555
H          -0.04921114712945   -0.75674838435451   -1.73440940621729
H           1.45320234457195   -1.27827782315942   -2.79398172795235
N          -2.30618340881446    1.30629189817345    1.64435110612643
H          -1.77923054755163    1.15542005247939    2.52748227900102
H          -3.11118519868940    1.90969364441736    1.76891662962880
H          -1.58718527655716    1.72064678603779    0.94005347485082
H          -2.55438996835095    0.36751325501817    1.23631152739674
