    26
        -50.45166221  Gyration_radius:  2.46221570518 Dipole_moment: 3.992
 S          -0.83197154931778   -1.32073389797415   -0.99321044703035
O           0.60503596497040   -1.17384257818225   -0.94123143898399
O          -1.36245067178411   -2.34535514084227   -0.15975936332798
O          -1.48133862888553    0.04979985487183   -0.66506973321102
O          -1.27821982097705   -1.50815344032171   -2.44140673714351
H          -1.06749202855465   -0.63205583288365   -2.90879530573463
H          -1.39260196394400    0.36995446899847    0.28156285689476
O           1.22988539253841    1.87011139189390    1.11358449378417
H           1.78397859211206    2.41934133442386    1.66970153420347
H           1.59054240034987    0.92931457058168    1.20954045227103
O          -1.26185634340887    1.18791173673195    1.63582774007755
H          -1.82598562738153    1.95588951103428    1.52210721757511
H          -0.32910424123085    1.50106257445725    1.51487936148154
O           1.96414551704488   -0.58788899484311    1.36427616276471
H           1.25135116304646   -0.97713696578211    1.93049149989546
H           1.76219768640255   -0.93561202225394    0.48282178361480
O           1.18488919498525    1.32138389350700   -1.67183652620338
H           1.15738594454319    0.37795039604839   -1.42527875953774
H           1.15438267569013    1.79448207922397   -0.82896428440463
O          -0.60412242257332    0.71302330857449   -3.50641715589434
H          -0.00115636770091    1.10689645020592   -2.82675095097268
H          -0.06198240792451    0.55956529659878   -4.28404074678038
N          -0.28316987854800   -1.58624378994592    2.44978298425162
H          -0.89433106446010   -0.80620430470175    2.66245411874658
H          -0.35924982203491   -2.25418136979909    3.20658213514373
H          -0.64876168300762   -2.02927850942684    1.60914908858407
