    26
        -50.45147114  Gyration_radius:  2.53201797941 Dipole_moment: 5.425
 S           0.82716941288831    0.88272799386167   -1.93222117315773
O          -0.32059661706858    0.03029403705337   -1.67353226928467
O           0.54497654939649    2.08629324091942   -2.62668226689064
O           1.48406689264233    1.18253705181413   -0.54189010912448
O           1.92062061512850    0.07628512412344   -2.60515271288548
H           2.19393024366663   -0.71017940376934   -1.92255889285569
H           0.82082724641712    1.65679137644605    0.03520557879581
O          -2.41849219740328    1.02804056890445   -0.30231747044681
H          -1.80463126089399    0.67492620010586   -0.97115477665240
H          -1.92690142699248    1.73550103582779    0.13213364585502
O          -0.28377476730155    0.05486944041864    2.46245611294098
H          -1.21217932610269   -0.22383045329004    2.49218508593899
H           0.10355478476365   -0.54989739349235    1.79939076680581
O          -2.60209673655758   -1.00587351424262    1.40265196574156
H          -3.51570187379779   -1.27566518007602    1.49538812846352
H          -2.60347254901459   -0.25685059685771    0.75435428061963
O          -0.24675497705138    2.24100163802164    1.06936407868371
H          -0.27410581887176    1.44485479257332    1.68433106780644
H           0.13456319559710    2.96393618063516    1.57036286496689
O          -0.04006899975280   -1.64298346294305    0.34999573499565
H          -0.17811470291138   -1.04551253894248   -0.41742870908669
H          -0.93343558683815   -1.87153943078931    0.64295513682794
N           2.53089121053433   -1.70566866986445   -0.91516987929456
H           1.68403821493586   -1.91690604151236   -0.39002103687667
H           3.20822357083064   -1.29413667507110   -0.28693617696443
H           2.90746491375623   -2.55901531985421   -1.30570898492252
