    26
        -50.45073182  Gyration_radius:  2.44540500356 Dipole_moment: 1.536
 S          -0.61986697399391    1.03314259848833   -0.91260990948810
O           0.65436621938883    0.47890074295573   -1.28785356250964
O          -1.73993823330507    0.48627527909303   -1.62093241967249
O          -0.83070432506042    0.78763101981974    0.61394596809959
O          -0.58920470461144    2.54610236500586   -1.01093530651231
H           0.08030579016614    2.86529120950468   -0.26969995348897
H          -1.63083612985431    0.14535515643526    0.71775073905056
O           0.95105170003537    3.08847218743921    0.88130365486200
H           1.67593328371715    2.36662277323704    0.83858008615570
H           0.41320391179520    2.87470441616042    1.64796088201829
O           0.92824570594545   -1.15513720203803    1.75305549227494
H           0.37875078826696   -0.39430613158552    1.53545308949456
H           0.49296010178260   -1.90458462095591    1.32880556765987
O          -2.68815663428251   -0.89785296094129    0.52004538831993
H          -2.85727777235335   -0.63411206180606   -0.39564968571341
H          -2.13284316831402   -1.70840506274177    0.48376357848004
O          -0.28449366776628   -1.82809023643260   -2.24310492360079
H           0.30524830026951   -1.09413146205113   -1.99243703715707
H          -1.07806934531430   -1.38447388635712   -2.56069492831984
O          -0.84072793423316   -2.80897282207444    0.14606699675097
H          -0.57455672662967   -2.52656170605196   -0.76600954054320
H          -0.91962600663825   -3.76397131720733    0.12557485041100
N           2.61570982552138    1.09669782936025    0.69395316998185
H           2.46070877120753    0.36701242991588    1.38315600965635
H           3.61323158830793    1.20928473859783    0.56834639005697
H           2.21658562607931    0.75510672425871   -0.17783457628701
