    26
        -50.44879004  Gyration_radius:  2.48991678358 Dipole_moment: 7.442
 S          -1.68697456486629    0.56968764896985   -0.68614538059165
O          -1.69577665685717    0.58225947743166    0.76053572061324
O          -2.47782764464388    1.56881796176795   -1.31967452938033
O          -0.22694147800357    0.65198711030481   -1.17443292206392
O          -2.08287036727133   -0.83994335789522   -1.17547594579430
H          -1.77512822613369   -1.46517664811896   -0.44184333371036
H           0.33563690069332    1.39827301491080   -0.63767885641234
O          -1.19638631157475   -2.01834326203228    0.91070253824538
H          -0.22030438686747   -2.07650912833256    0.89322491861408
H          -1.39578631667102   -1.15937758917815    1.31812169345387
O          -1.45984239711323    3.25131611531872    0.71953722060786
H          -1.68748689709234    2.38635328469232    1.09601263354407
H          -1.93783600975004    3.27472086494839   -0.11730807014941
O           1.52778514786822   -2.01385582680371    0.67366862506285
H           1.97460882405449   -2.84063286468586    0.86175852546093
H           1.47055925771657   -1.93101839831477   -0.32422569162243
O           0.97100657777568    2.32505631263146    0.18956309873029
H           1.23045568177515    1.74768616279021    0.94284389322341
H           0.19391290235706    2.85822419616161    0.48443090524257
O           1.71263193430959    0.44523411067312    1.95913874247517
H           2.61840432983819    0.48300282887582    2.27105761323414
H           1.60451797935571   -0.41378709864749    1.51625607444036
N           1.14977802918551   -1.77690032353932   -1.93463298763225
H           0.67286271881085   -0.87861846794170   -1.87627268039665
H           0.48170764999584   -2.44461747718756   -2.30038420466719
H           1.89929331313606   -1.68383863678609   -2.60877760055574
