    26
        -50.45018978  Gyration_radius:  2.49741190868 Dipole_moment: 5.271
 S           0.01043991282232    0.95003293145122   -2.22170939752230
O          -0.93400082884704    1.70430110489899   -1.42838166099392
O          -0.07995335468230    1.06984099959294   -3.62752809407969
O           1.44770340574585    1.28632928920741   -1.77685074473303
O          -0.11616035548828   -0.54322143793773   -1.77888171378211
H          -1.04398935106079   -0.63867344833869   -1.36913954740768
H           1.52669424556476    1.28410667130406   -0.77549604023671
O           1.76098315058591    1.26419726654555    0.78221771386486
H           1.50381643561586    0.36303394670861    1.17671919158393
H           2.69629929018342    1.37705576226658    0.95900197582943
O          -0.79082048833097    2.24557958398556    1.19554361488380
H          -0.94399094645500    2.22452047636246    0.23193948681255
H           0.17055681361388    2.18662219797884    1.28606539274117
O          -1.61667304844434   -0.13805115797742    1.86752849202228
H          -2.20617685480600   -0.10447377935831    2.62178726133155
H          -1.33228187794107    0.80453155375803    1.68744906713215
O          -2.39696933513767   -0.44712648863982   -0.69173625584912
H          -2.43098822658260    0.49037427725125   -0.92979370377321
H          -2.20198759713774   -0.47067486640258    0.27082323717172
O           1.02563231502635   -0.98714195206151    1.76158186339722
H           0.07075868871850   -0.86053084242044    1.88620173574275
H           1.12226008430776   -1.67880099272255    1.06118985867247
N           1.20190287304178   -2.72104760504995   -0.30356059887158
H           0.85115869172519   -2.09318089904562   -1.02149660421751
H           0.58810937618938   -3.52538613085828   -0.27277094305965
H           2.11767697178325   -3.04221647048497   -0.59070359668236
