    26
        -50.44937885  Gyration_radius:  2.598177232 Dipole_moment: 7.544
 S           2.41728943354603   -1.06882301626922    0.51870797479748
O           2.18236584589169   -0.45641231827814   -0.81810439523168
O           3.65965421511485   -1.74419812710711    0.61652484290774
O           2.18481200460826   -0.03128434694031    1.54888410363349
O           1.25100978932641   -2.10919837497452    0.68246006666147
H           0.48707100169648   -1.60412241748092    1.03296411837117
H           1.93935141942980    1.35272324422046    0.87817510163199
O          -0.43762538063643   -0.33147477899016    1.70076155917546
H           0.44354926167837   -0.08374721775296    2.02782924676768
H          -0.69388936463501    0.36555583596056    1.06591585914480
O          -0.89674982045603    1.45333370932858   -0.38113752766076
H          -1.87102205758177    1.50780535713823   -0.30463038096241
H          -0.73841848486276    0.72628456518179   -1.00965324047818
O          -3.49710080714760    0.88724441656083   -0.22244574064572
H          -4.24036367673414    0.88644169068925   -0.82571615111974
H          -3.22955819592259   -0.05358861468913   -0.10749848784511
O          -0.22632435022374   -0.84619875331825   -1.71128185739146
H           0.70595140354757   -0.80846944085668   -1.37720305066163
H          -0.18345752453496   -1.28470067956777   -2.56191071159086
O          -2.36074910171187   -1.54353626257055   -0.01731424216062
H          -1.96108506216118   -1.51368783436500    0.85871899830334
H          -1.62201225839250   -1.46472309225861   -0.64292553651526
N           1.72366263373291    1.89221842128449   -0.02162033397581
H           2.27251694869320    2.73444096686421   -0.14751934640696
H           0.70370327609746    2.05293443885875   -0.10881440696167
H           1.98741884164246    1.08518262934141   -0.67316647178946
