    26
        -50.44843333  Gyration_radius:  2.51445907192 Dipole_moment: 4.593
 S          -0.53901332750031    0.82373444941789   -1.99973317269133
O           0.67783382741221    0.05433325882292   -2.03553938670236
O          -1.62179972171684    0.31472214160531   -2.76894723396094
O          -0.98614639600025    0.94303816006192   -0.51179529894406
O          -0.22247172109686    2.28143328821190   -2.36184969561738
H           0.59219197305414    2.51958379795294   -1.82334866050440
H          -1.71147523006398    0.17678825466685   -0.38332954577188
O          -0.66377637269894   -2.46555131549153    0.62164119811426
H           0.21064210682598   -2.26920282656920    0.24863954811023
H          -0.66186925291031   -2.01527588318760    1.49822803753275
O          -2.51078675209464   -0.99213711141091   -0.43280594418561
H          -2.57234793619214   -1.09585873953931   -1.38972965854930
H          -1.86891782551016   -1.68290203496515   -0.07544580283623
O           1.24847853390823    0.89742300457050    1.04146610719646
H           1.64359100663418    0.05689696811979    0.75358080537887
H           0.36345636777063    0.90394729890012    0.63857176338970
O           1.75306701603813    2.79058748607742   -0.78063129198033
H           1.63067455131460    3.63677582285411   -0.34430733269201
H           1.71374761870023    2.10167669667390   -0.07286875712126
O           1.78998513856169   -1.48183151073642   -0.25262997538581
H           2.55394272956935   -1.93284207038613   -0.61475741126240
H           1.40693649290992   -0.95291663448259   -0.98993159453840
N          -0.56552651391069   -0.85102334462395    2.82314853202259
H          -0.36793660809687   -1.23059763083731    3.74002587973586
H          -1.44868450190538   -0.35849876255626    2.87124171736722
H           0.15620477697656   -0.17230276314350    2.60110722388229
