    26
        -50.45599920  Gyration_radius:  2.4791189509 Dipole_moment: 2.526
 S           0.74998910653604   -0.16975464189947    1.26165817862862
O          -0.60086336975047    0.16665249572491    1.65100893652124
O           1.11947428499109   -1.52440017512329    1.55360293128942
O           0.92168561602114    0.10526954183316   -0.24286747998421
O           1.73974339143578    0.78900360011869    1.89548733427682
H           1.52736066435240    1.74528600784878    1.54350144542442
H           0.35084385694145   -0.56007126267790   -0.79886521769878
O          -0.44681830363793   -1.62734886646774   -1.44962843898708
H          -1.10028595212965   -1.85144860003149   -0.74293379707336
H           0.21275555516008   -2.34864900765274   -1.39996434021428
O          -1.26177632536550    2.40515197026713    0.29241952694820
H          -1.25724198701236    2.09333831309145   -0.64452968789023
H          -1.26280132367711    1.59833450060389    0.83386285784021
O          -1.71984662289100   -2.11422589100932    0.81800995774686
H          -1.50725553580130   -1.26476758509934    1.24446446980051
H          -1.18711358425898   -2.77292980434571    1.27090891774958
O           1.09835942568889    3.06303681116973    1.05426541571128
H           0.16941328521876    2.89604271185088    0.68265519166828
H           0.98391893943500    3.65464465604063    1.80182101016390
O           1.47329873730903   -3.22945320111428   -0.49517139907669
H           2.40961949480985   -3.31206989454362   -0.68100412344037
H           1.40236346130801   -2.71127465364468    0.32993916631185
N          -1.03523600638506    1.36646930419507   -2.21559317914142
H          -0.03253297233876    1.44019068569670   -2.33773278203643
H          -1.48433421151764    1.78401418038256   -3.02093527540472
H          -1.26271965449918    0.37895881478765   -2.20437959912519
