    26
        -50.47328328  Gyration_radius:  2.39695867877 Dipole_moment: 4.191
 S           0.98012402313341    1.12465790422249    0.84358848234409
O           0.82958741870535   -0.22937801108329    1.38506109310606
O           2.19419725933549    1.25040007631596    0.05989013413457
O          -0.19687801803722    1.48916714841283    0.05244038917835
O           1.06463025216789    2.10560126619744    2.04157470182593
H           0.31586748974408    1.81493935823531    2.61475590418287
H          -0.51869298932034    1.11754535691801   -1.62972731745355
O          -2.42254187274786    0.42651489256851    0.85707112940965
H          -1.58446788542926    0.85511472410515    0.54786107875484
H          -3.13832337876275    0.97500494895791    0.53116101106840
O          -0.88683148359543    0.75598673981676    3.16154802691476
H          -1.68079681594602    0.71153569107184    2.60517591094101
H          -0.31132275192610    0.05980780593528    2.80656710341848
O           0.87579159185155   -2.23574952763823   -0.22592066182898
H           0.85072016804636   -1.48685665288080    0.43171702775441
H           1.16604694113639   -3.00706771214456    0.26315095108248
O          -1.71201061855181   -1.45698846062098   -1.08736029035516
H          -2.06815071112412   -0.96533293668748   -0.32755582405524
H          -0.91157397541259   -1.89899700527653   -0.77015009783792
O          -0.57112869287539    0.54376495495450   -2.41961277645317
H          -1.12276204538594   -0.21935024592924   -2.11926008347286
H           0.84167262672349    0.00624844445034   -2.31936271325096
N           1.79906060217843   -0.36071956470188   -1.95062622447873
H           2.08860370997070    0.32749505042265   -1.19146439788778
H           2.49995929334996   -0.43674091408094   -2.67918306253393
H           1.61921986273379   -1.26660333150593   -1.48133951444969
