    26
        -50.45532086  Gyration_radius:  2.45677007993 Dipole_moment: 2.301
 S           1.27510869465546   -0.74703645461314    0.40708957286504
O          -0.10540373123910   -0.95210977782532    0.78043159373137
O           1.72852144846728   -1.63770448145975   -0.62153785173769
O           1.44722972308781    0.71673426751550   -0.03111824775997
O           2.18896229665142   -0.84471512170850    1.61795908778737
H           2.11454934160452    0.04086123109587    2.13912826376553
H           0.76140843976880    0.93049999326139   -0.80926662083742
O          -1.76266620093460   -2.06796390279120   -1.10750035176282
H          -1.16993598873622   -1.92105145334485   -0.35252204802503
H          -1.19621349131386   -2.04865735094152   -1.89025749428520
O           1.90917476350259    1.42880203543195    2.67702669492195
H           2.29700352104207    1.98316909023085    1.99444988365232
H           0.91529938836877    1.53487086551856    2.58473033273151
O          -0.21846209484435    1.06555962051165   -1.83900188205930
H          -0.08435203431820    0.27778579029768   -2.40097929074097
H          -1.11725516793530    0.95087190539504   -1.43300960086174
O          -2.51387120331614    0.44197963334609   -0.68225043646591
H          -2.44874165477531   -0.50815796100794   -0.94191088225023
H          -2.48012764558667    0.43222483165169    0.27602654580934
O           0.35296207322114   -1.39412894674729   -2.84798789599063
H           0.92542317266438   -1.57354623834683   -2.06832032815406
H           0.84722463610680   -1.67298883288367   -3.62066137817214
N          -0.67972181513790    1.46073109601717    2.14153604882525
H          -0.63093490029901    0.54343641689663    1.69783313104247
H          -0.98531039967823    2.13348156996128    1.44982269447317
H          -1.36987117105964    1.42705217453872    2.88029048952001
