    26
        -50.45477947  Gyration_radius:  2.80095361578 Dipole_moment: 8.817
 S           0.00185157630794    0.74498661653696    0.75407003310649
O           0.41646118651094   -0.66693952127394    0.70079758056938
O           0.91381501501023    1.49090753845994    1.73874648260570
O           0.14256052836890    1.35880481932689   -0.56982892064976
O          -1.36427056559984    0.85671217745055    1.24658860659404
O          -1.45837520685451    0.21480676907926   -2.31180205294782
H          -1.93567121237776    0.92899224081447   -2.73677072050208
H          -0.78019937534241    0.65068797548076   -1.73906239718732
O           2.24613663329370    2.79817891383111   -1.30589201207999
H           1.44842583957497    2.24991628667354   -1.14285584672413
H           1.99510378214952    3.69798767584398   -1.09050236281713
O           2.94823619634796   -1.12809023689550    0.13903650504677
H           3.23236437354358   -1.73009012370687    0.82894471421662
H           1.98181177991252   -0.99890511577361    0.27462074853280
O          -3.79390110262692   -3.16432296115069    0.75540383475033
H          -4.30804334201066   -2.86778543074048    1.50978406611499
H          -3.57853641784855   -4.08859001054103    0.89645347860932
O           3.25776465023801    1.45371008435064    0.78417163731724
H           3.11222240120202    1.98217475644793   -0.02989242182099
H           1.88949254207114    1.48661984136534    1.40134171694039
H           3.33245943908023    0.52167469752046    0.48316696793844
N          -1.98184056084203   -1.20027960297835   -0.13054682477340
H          -2.65847118822485   -1.94517296909723    0.07531972401261
H          -2.05837546985351   -0.34608715181504    0.50228508974888
H          -0.99209801970266   -1.45316248095284    0.07927919842519
H          -2.00892349233421   -0.84673477825296   -1.11285682503336
