    26
        -50.44521465  Gyration_radius:  2.60179208502 Dipole_moment: 6.036
 S          -0.18287555429536    1.73090615509613   -1.87176163481592
O          -1.14817448961465    1.44089980411459   -0.81740595570568
O          -0.14896250134928    3.07551346083030   -2.31026003107423
O           1.21681844433592    1.29018645664772   -1.31010473509666
O          -0.38974073738165    0.78067202986910   -3.03205659543730
H          -0.42245202942678   -0.22776885118436   -2.70780673361450
H           1.18166552802378    1.44508257317716   -0.32707717920615
O           0.14437388047007   -1.12060390595751    1.70626007471641
H          -0.66974506121222   -1.21350526986492    1.18140601532779
H          -0.13609565731854   -0.87992724105548    2.60183204761938
O          -0.45515915940651   -1.55490503813897   -2.16395865698970
H          -1.11329975466014   -1.53557231800649   -1.44788703016422
H           0.43026343130167   -1.67371302437111   -1.70590126359480
O          -2.01279507750700   -0.88724867068653   -0.00487671291636
H          -2.96415676567859   -0.87613880850821    0.10950277411184
H          -1.75620886157743    0.01959704960695   -0.29974243276458
O           0.58844187834436    1.46684467552073    1.18949898913787
H          -0.26207736906812    1.66623596218436    0.76371715325740
H           0.56919269046184    0.49141489367869    1.35285121623985
O          -0.38939322185337    0.66051929506888    3.77986370300676
H          -0.04091221574463    1.28958078570017    3.13188677891459
H          -0.03601513514840    0.91468089081249    4.63317808435426
N           1.79310603906596   -1.62966439072435   -0.77206809238932
H           2.52048103369300   -2.32048474082897   -0.89818541351694
H           1.50867455164664   -1.63768911513291    0.20176128080494
H           2.17504611393074   -0.71491264784301   -0.98266564022070
