    26
        -50.44236944  Gyration_radius:  2.66468082663 Dipole_moment: 6.853
 S          -2.36473443855235    1.50894245615499    0.68496219449967
O          -2.33682953276890    0.74659824218411   -0.53656353437331
O          -3.37228759255235    1.17111714436267    1.62383685340233
O          -0.94383856576172    1.40424677683029    1.34843246484804
O          -2.39146433449727    3.01044172614974    0.35728123308415
H          -1.55366176963898    3.14004055404146   -0.17234524325100
H          -0.70548216403414    0.46109794671420    1.57196552529030
O          -0.13944858975479   -1.00271259256907    1.88437462585333
H          -0.08390067130613   -1.12770732163726    2.83293093145168
H           0.80731997902993   -0.91780038702992    1.54358763900673
O          -0.05336191132622    3.10287008170948   -0.73748231042763
H           0.22222559372358    2.18401342730781   -0.94827074760910
H           0.45880476423023    3.35319775093110    0.03536582642992
O           0.92708695586841    0.63189444178690   -1.30756465890305
H           1.09916914311033    0.64320434800206   -2.25054654845572
H           0.27542814294334   -0.09966527695046   -1.15628765285387
O          -0.79467508717096   -1.34700962646386   -0.82413233990143
H          -0.70583464124277   -1.54281211378647    0.11800255840518
H          -1.52587121646158   -0.69596936197571   -0.86563254781942
O           2.18697791911237   -0.76628128823972    0.77537857921178
H           2.19984403588280   -1.58381350031986    0.22276298892428
H           1.98973025664375   -0.05471369281597    0.14887026681314
N           1.80843480415618   -2.87046353168744   -0.91529900786744
H           0.86776421598303   -2.60878677086431   -1.19529544761216
H           1.75722040657884   -3.78566939006201   -0.48600201864885
H           2.37138428781788   -2.95426006178213   -1.75232960946192
