    26
        -50.45123047  Gyration_radius:  2.47008783593 Dipole_moment: 4.657
 S          -1.60894994789964    1.08426223031265   -1.40544648844326
O          -1.59699941693225   -0.09545744739470   -0.56910044894291
O          -2.88316250896156    1.60394081666858   -1.73739940101348
O          -0.72005986227240    2.16303802628609   -0.71673309059520
O          -0.79930702598184    0.80011634607803   -2.68285007687019
H           0.13773637197084    0.62367947186334   -2.36494602009972
H          -0.68482207256949    2.04387648221626    0.27599396863914
O          -1.35582500059760   -0.58294376936516    2.06908851716108
H          -0.54490401003355   -1.12092174718299    2.07464244307331
H          -1.65093409142900   -0.58189398451371    1.14175643626713
O           1.03986309942325   -1.85078921788302    1.56882709878238
H           0.79182499082869   -2.07024566944712    0.61929133969247
H           1.57497096507213   -2.57376474157085    1.89678003199362
O          -0.54488637674842    1.85122541407412    1.84357692202359
H          -1.11498961395887    2.45336535471871    2.32408318984511
H          -0.88086718225019    0.91759071435179    2.03314296233399
O           1.58803181242028    0.45637523847786   -1.79925657280727
H           1.65312502726094    0.53512814400767   -0.80539247696928
H           2.10656740956549    1.18356747100452   -2.14936068502653
O           1.81122721619557    0.66167021938534    0.80614492079099
H           1.16972536699063    1.25389325611190    1.21679618811389
H           1.62544607300859   -0.22529768376764    1.16815330821744
N           0.32689772821038   -2.18435566922497   -0.95013005081307
H           1.01419246425686   -1.75733061609753   -1.56058117942113
H          -0.46717539198688   -1.54497616784846   -0.91444994912269
H           0.01327398641551   -3.04375247124405   -1.38263090681783
