    26
        -50.44844166  Gyration_radius:  2.43635273563 Dipole_moment: 3.560
 S          -1.35326432413772    0.94863860736965   -1.13288641786580
O          -1.52008302505453    1.35457387745470    0.24635286397120
O          -1.04973599071045    2.00822053054443   -2.03381678987440
O          -0.21454321950338   -0.11270070868179   -1.18979348043933
O          -2.55379456725624    0.13084864767208   -1.58266540173583
H          -2.52146507690409   -0.71743341642657   -0.99698374899827
H           0.64414833168440    0.40823352957706   -1.21847985530089
O           0.81036944326300    2.47227149630301    1.08896383349339
H          -0.11347741006479    2.37306541972615    0.80220871524065
H           0.90547102732169    1.85307440851824    1.82197525098442
O          -0.49288297270583    0.22497067935648    2.43922207211315
H          -0.95438126733208    0.59919194899023    1.66105703613439
H          -1.16287466060137    0.10740761341846    3.11450880393373
O          -2.30302879503861   -1.94291214878204   -0.17573195484184
H          -2.33450258742605   -2.70809836909897   -0.75381515198318
H          -1.39522430985772   -1.97188888519463    0.26433694766518
O           1.70388414866721    1.57566307312702   -1.22334391452699
H           1.25633227195420    2.14980132407250   -1.85457881629849
H           1.54424958444415    1.98811460766208   -0.33629864602843
O           0.01202430100626   -2.05178992809196    0.99899781598061
H           0.79078522422087   -1.84414177431838    0.43974129038159
H          -0.05010835839612   -1.31501577757000    1.63221165742840
N           2.36093632814186   -1.43042411976094   -0.35719287966958
H           3.16786081621303   -1.84753317257544    0.09023549671107
H           2.53477968896440   -0.43697316978533   -0.45369475535461
H           2.28852540910196   -1.81516428350803   -1.29052996111987
