    26
        -50.44654964  Gyration_radius:  2.48687255096 Dipole_moment: 5.505
 S          -0.49890664395716    2.14273169348104    0.26494568457424
O          -1.52705926305203    1.17218480179900   -0.04276958985373
O          -0.90171824401858    3.49109505095737    0.38998589804981
O           0.21877425031762    1.70840469075619    1.56353644744435
O           0.61043204345524    2.01865958457379   -0.81407968099798
H           0.52665322904312    1.18205907874605   -1.37390224455248
H           0.50166398182323    0.75278699355957    1.49603478978847
O           1.18436668208536   -0.68533215326993    1.37082717784970
H           1.66861605485727   -0.85225595597066    2.18170900783413
H           1.86290806298270   -0.55636165906594    0.63346294797765
O          -1.64217608948242   -1.14231685273845   -1.47880496487785
H          -1.44387484423070   -1.75538627638085   -0.72965740841209
H          -1.91632589593528   -0.31869395496516   -1.04685170942138
O          -2.50441031623364   -0.32449106204912    1.97586255212613
H          -2.17290688631720    0.28518119961790    1.29059421762818
H          -3.45196164786155   -0.18989945584200    2.02213293261892
O          -1.03329209174372   -2.33067356888221    0.82225685526645
H          -1.66438300990196   -1.81825490398853    1.35786030499240
H          -0.17857493213697   -1.91344689084919    0.99861454458099
O           0.50080500213832   -0.05064593888266   -2.33612313429289
H          -0.31215347625663   -0.57790924479174   -2.02562962130734
H           0.28409800423662    0.25849300689396   -3.21776048769175
N           2.85817072653956   -0.20485492880810   -0.59294773533781
H           3.05673483426791    0.78831847327305   -0.57827457720101
H           2.24906141148324   -0.37492596666461   -1.38846983376170
H           3.72545907789751   -0.70446575049584   -0.74255238301084
