    26
        -50.45465441  Gyration_radius:  2.46302220102 Dipole_moment: 5.251
 S          -0.21919232987647   -0.81382753617030   -1.82431177688062
O           0.77802688816785   -0.09069249375335   -1.04011897356987
O           0.18239098455389   -2.13875306287051   -2.15231747576811
O          -1.54426870868853   -0.78062826202281   -1.05487395252927
O          -0.54492201008469   -0.01900755927794   -3.08591733198924
H          -1.09921357033864    0.79869289275605   -2.82992483831052
H          -1.44739778247829   -1.18145204578954   -0.09863214765364
O          -0.53400941438482    0.72240489145904    2.40754835843090
H           0.44632063977750    0.64415800794851    2.22244000966106
H          -0.63340365484400    0.91032711054030    3.34141212062651
O          -1.80088122632327    2.06958877079246   -2.34566647427254
H          -1.46049181892110    2.83314999860481   -2.81786441230942
H          -1.46121402156047    2.14091867965432   -1.41592718662677
O           1.36070173806658   -2.32910346834939    0.38503540653702
H           1.33651944947654   -1.52886412336607   -0.16660264516643
H           1.24115633901121   -3.04954738113705   -0.24064440309421
O          -0.50259048825180    2.05331492228185   -0.07219383979107
H           0.06414402149739    1.33252477470038   -0.40480652056568
H          -0.80542678479231    1.75221818882409    0.79594305308830
O          -1.10024075382285   -1.65014924850237    1.25322473482764
H          -0.19683515848703   -2.01188368196146    1.12595129238960
H          -0.99584526963018   -0.81177910686734    1.75227985364356
N           2.00684264626690    0.35961741770962    1.70693074301276
H           2.25182815912972   -0.61133483387769    1.86564630908533
H           2.79109334621694    0.93384418456660    1.98941205440059
H           1.88690879032641    0.46626297411836    0.70397804281909
