    26
        -50.45477912  Gyration_radius:  2.80147672129 Dipole_moment: 8.826
 S          -1.04387721111225   -0.14141739636367   -0.14735063934702
O          -1.44192026230964    0.72242476646917   -1.25030492917827
O          -0.22987714395344    0.60673966199935    0.82547073672342
O          -2.32335190276885   -0.62685197443995    0.54895887528070
O          -0.30099508385136   -1.31046609362119   -0.62788099804484
O           0.34921885565880   -0.62849606646652    3.07861970844201
H           0.09660161321386   -0.00088099081261    3.75783838381888
H           0.21935329719158   -0.16416543915032    2.22034894411224
O           1.36452229397200    4.51116317892670   -1.66074208158222
H           1.76536797759881    5.11048129638990   -1.02782240074043
H           0.60812903687571    4.95917222263552   -2.04589217109193
O          -0.59582887481767   -3.75045959842689    0.37004321473660
H          -0.38674485094643   -2.88124854871504   -0.03534240439809
H          -1.25948719706118   -4.15089973342483   -0.19411142398691
O           1.86283114877650   -0.58110159885686   -1.92877147743831
H           1.11011139245820   -0.93976563434990   -1.39710074476778
H           1.83565260700076   -1.04975963174717   -2.76431011676387
O          -1.63861526199584   -2.26914011039396    2.34876774785090
H          -2.09389977424823   -1.28867604953374    1.30764154422652
H          -1.24861362340216   -2.97473986538496    1.78898374727370
H          -0.87503102400152   -1.80516878517648    2.75700449029921
N           0.88193921492303    1.77457125195947   -1.20547844884341
H           1.16720700303029    2.74146241636102   -1.40233129927014
H          -0.11572801556467    1.53922289122986   -1.49659372846035
H           1.49639443555852    1.04451344349736   -1.62999674912796
H           0.79664134976312    1.55348639740618   -0.18964778970635
