    26
        -50.44769645  Gyration_radius:  2.49127547898 Dipole_moment: 7.917
 S          -0.49435550705990    1.98465186537902    1.07863093318847
O          -0.51986334019480    2.16440865362868   -0.36178210931171
O          -1.57657104498602    2.56195614503352    1.78920318895778
O          -0.43153390245428    0.44426858517960    1.34165112914627
O           0.84964047788519    2.42766557863811    1.63097774549402
H           1.55256308275491    1.85433144537653    1.13528678537475
H          -1.22540416043175   -0.02670847565809    0.96693992207739
O          -2.38361119527712   -1.00201041836618    0.40929006254561
H          -3.11769509878701   -0.98788398355553    1.02571460225716
H          -1.83192682975366   -1.82125168491491    0.61284238522401
O           2.40599038388622    0.98490287042834    0.27639932554662
H           2.00153728581814    0.09942288089013    0.18173646793824
H           2.32916055505539    1.40395215330629   -0.60815140556597
O          -0.77190735732638   -0.09912342739396   -1.73411219617060
H          -1.55865955488815   -0.51100202639032   -1.35996477950723
H          -0.72916278729116    0.78506815574446   -1.31425231389325
O           1.57293018542425    2.03148848233917   -2.05964912797947
H           0.81340086557819    2.34317702665528   -1.53619632542195
H           1.20268978704725    1.43394048651989   -2.71390184204131
O           1.27073250027248   -1.35274490328761   -0.60723351880481
H           1.85541955235857   -1.65490386418286   -1.30462083957163
H           0.50867858902963   -0.90443194455713   -1.05686354865039
N          -0.66403952267219   -2.90777378486463    0.99702738619855
H           0.13724610434676   -2.45966104064443    0.55389710037925
H          -0.71395115080625   -3.86252289102990    0.66478421947755
H          -0.48130789742070   -2.92921586444361    1.99234677286832
