    26
        -50.45053207  Gyration_radius:  2.45721147108 Dipole_moment: 0.762
 S           0.05090417857248    0.67955538820749   -1.70987500551349
O           0.21557911613386   -0.72458999249036   -1.46026103491528
O          -0.76766523711413    1.00540831761725   -2.83514683719428
O          -0.55100790843880    1.34568978639046   -0.42682750152787
O           1.39825421998265    1.38312169456357   -1.80532258465267
H           1.94549056566161    1.12748116601219   -0.97297840555099
H          -1.31736540308934    0.78576203113653   -0.10232518524941
O          -0.54537391756631   -0.55466325220203    2.38740389429280
H           0.11633316611179   -1.15956812482060    1.96866368813275
H          -1.30704262695783   -0.55840251407711    1.79868529978866
O          -2.54424410219019   -0.15084262151446    0.22317950038638
H          -2.60175570530613   -0.60313500466455   -0.66287240427787
H          -3.36969951730698    0.32468621601115    0.34240742879876
O          -2.40711595700211   -1.05088272905035   -2.23110231301450
H          -1.67304405026851   -1.67152167849064   -2.16816797269658
H          -2.02301848910078   -0.27227013331867   -2.67260971647029
O           0.85202662502352    1.65434889554028    1.97866562804010
H           0.26437125350418    2.05761043021541    1.33133689658864
H           0.36142058715360    0.85120388606731    2.29282147512312
O           2.66274904018216    0.85043355521579    0.32043578008257
H           1.99650879706770    1.12145382577010    1.03144783316168
H           3.39855020817407    1.46186703842302    0.39970767834742
N           1.28701009896884   -1.90894419100410    0.94982755478280
H           2.18579333553237   -1.45322958252841    1.05251514668952
H           0.92575720923691   -1.63245414736702    0.03898251994235
H           1.44658450315464   -2.90811827937380    0.93140865691805
