    26
        -50.44639629  Gyration_radius:  2.51487034242 Dipole_moment: 3.604
 S          -0.81050610137746    0.08384840229112   -2.20310371628861
O          -1.69747913516277    1.15239925355859   -1.83202929638181
O          -0.65122051794806   -0.23070975488538   -3.57222790372715
O           0.59592445528824    0.40626405573611   -1.59119936331915
O          -1.22610853556622   -1.20752471146097   -1.45227492457262
H          -1.39041197472003   -1.00494619840105   -0.48204905413955
H           0.53176323165733    1.14240948943525   -0.91964383294902
O           1.99420313796584    0.96168844603261    1.97744070277304
H           1.54645186684689    1.49095644896111    1.29856746812053
H           1.85864414910528    1.41124922060071    2.81316065411553
O          -2.03850349074656    1.88985866143184    0.70151566471687
H          -2.00946608078356    0.99381226417374    1.07375213689130
H          -2.20417469268381    1.75278860476803   -0.25089598838977
O          -1.55443108243587   -0.78873138369489    1.06608405527306
H          -0.61191162625310   -1.04621120340998    1.38402042173025
H          -2.13913410371590   -1.46461629561717    1.41318656045536
O           0.43255556637671    2.33889613833078    0.14018486383195
H           0.47260660528688    3.16374625308276   -0.34719211072976
H          -0.52193153508216    2.24281625348128    0.45585894850244
O           0.79801370738453   -1.47703727977094    1.71956471160408
H           1.32476489430474   -0.66778287724038    1.86454864964940
H           1.13437918104910   -1.86429742289195    0.87387803998466
N           1.51371530940025   -2.29724681400485   -0.75894112317876
H           1.54945532787202   -1.38926772014200   -1.21108096543068
H           0.73729125625263   -2.79735898268937   -1.17546187155407
H           2.36551016767155   -2.79500286768794   -0.98566273699153
