    26
        -50.44849351  Gyration_radius:  2.49537796263 Dipole_moment: 5.421
 S           1.58355098577369    1.64446065065177   -0.52254726105118
O           0.23952909635390    1.50667386530748   -1.03908412427894
O           2.26765976411830    2.84398803364276   -0.82998315085286
O           1.49014923729832    1.43158194055264    1.02870408867698
O           2.42736429477676    0.44071683390288   -0.96260936584258
H           1.94410116793200   -0.43089489914594   -0.76113936900013
H           0.52415441503026    1.73447508298220    1.27195436294341
O           1.31499191968540   -0.94542592810970    2.33987492954173
H           1.88499630988486   -1.06116598419569    3.10146815833527
H           1.50311642080304   -0.05976657013284    1.97460996236189
O          -1.44853426711331   -0.57467327600318    1.85334899806668
H          -1.55777303029920   -1.02074413041773    0.99642630646476
H          -0.58583734516104   -0.85300101210844    2.19194027965242
O          -1.44683608832573   -1.77467680041684   -0.63614807352202
H          -1.57767633921628   -1.10573401291196   -1.37459626491935
H          -1.88234864984200   -2.58326248941372   -0.90867168524723
O          -0.92908036469000    1.95882042893562    1.32514206232173
H          -1.00176496894344    1.98311261006495    0.35944430976406
H          -1.27038193355147    1.06765179068882    1.60328553993708
O           1.23649272160646   -1.71552015685812   -0.29975810626295
H           1.31941215540241   -1.69307632752129    0.66740871987036
H           0.27443325415934   -1.74133075373482   -0.48528803208551
N          -1.62421379743919    0.01399330891478   -2.56569076711426
H          -0.94175114318601    0.64488115727965   -2.14338931818648
H          -2.47717834117912    0.53992805067657   -2.70968649695825
H          -1.26657547388504   -0.25101140264209   -3.47501569262404
