    26
        -50.45319640  Gyration_radius:  2.54927307693 Dipole_moment: 2.490
 S          -0.91224240256595    1.36276424781548   -0.85494150734259
O          -0.18847226462983    0.35786668517472   -1.58783654643948
O          -2.29857144325735    1.48150726655065   -1.19514593662803
O          -0.77567632696792    1.05389991530877    0.65989302615749
O          -0.23354760751759    2.71792945543118   -0.98046582348354
H           0.77931914890091    2.57517671141938   -0.86246312141095
H          -1.13928350362071    0.08798726739876    0.84284260632427
O           1.85345843222938    1.02779092336781    1.63293889571154
H           2.06520574103852    0.06842098593091    1.49293792669324
H           0.88921490418577    1.08176729936664    1.60849462640905
O          -3.56579133758909   -0.82152204574130   -0.83964177585656
H          -4.46856718221138   -0.61677947003520   -0.58871240622398
H          -3.15941143316545    0.03075546462763   -1.10439458991558
O           0.15341924731736   -2.14944174123646   -0.91014071042302
H           0.12460741961023   -1.21934552155029   -1.23323151123189
H          -0.19058552736581   -2.68445390847294   -1.62800889783330
O           2.22410495986334    2.37564028624772   -0.53758447422935
H           2.18577838156804    1.82486539351794    0.30528688245906
H           2.61058456515649    3.21891412737770   -0.29052310053016
O          -1.62612241768095   -1.28372751456479    0.91395649889837
H          -2.43687486191899   -1.24914575401716    0.35517573555957
H          -0.96517471232261   -1.77358473691357    0.37972936295461
N           2.25083179585557   -1.60061592021216    1.16744671914487
H           2.01581111586267   -2.17611324824854    1.96649910494300
H           3.18954762702667   -1.84137239506045    0.87540164693344
H           1.61843766217229   -1.84918379348764    0.41248735933913
