    26
        -50.45492079  Gyration_radius:  2.41840856799 Dipole_moment: 2.973
 S          -0.51741725290887    0.72566181684750   -1.33855666685983
O          -0.79268347539491   -0.52698531482317   -0.63773685647906
O          -1.58121179477705    1.13835225610045   -2.18631718225112
O          -0.17889820843644    1.79348187364226   -0.27938906855504
O           0.78841913578865    0.58979806890819   -2.09623232678147
H           1.57891408384266    0.83335791907643   -1.44092496269440
H          -0.89929305973972    1.83394871285442    0.47191378414508
O          -1.90606632876017    1.64382536948151    1.52944325514677
H          -2.63820787839280    1.21574913840360    1.02712779760222
H          -1.47703639757429    0.93493779660460    2.03993948568037
O           2.28126950982950   -0.68529143187705    1.29755143079239
H           2.14550274876444   -1.39999541302607    0.63282362219244
H           1.42690961070051   -0.57759619602329    1.74326898929013
O          -0.44784775672291   -0.64528683979970    1.97833992562428
H          -0.56210156066301   -0.67348897754017    1.00272578576608
H          -0.78187871257247   -1.47816611403453    2.31639414099616
O           2.53600385295336    1.22350829692693   -0.43693785867799
H           2.12561942347967    1.99487748391400   -0.03469698192047
H           2.53623064899500    0.50375954278112    0.26896527367651
O          -3.35773984003957    0.26370802287600   -0.22352397453878
H          -3.48942740050905    0.79056173153291   -1.01832354668071
H          -2.58579485758770   -0.28622728055686   -0.42720436381126
N           1.56837362063991   -2.23973307391819   -0.80530158879385
H           2.13474976220591   -1.94431958311273   -1.59126389161312
H           0.66236164393396   -1.78880193921733   -0.90823822907458
H           1.43125047297932   -3.23963585605638   -0.88384598218046
