    26
        -50.45016079  Gyration_radius:  2.42263816375 Dipole_moment: 3.797
 S          -0.28844547275170   -0.34642489885853   -1.55665190646648
O          -1.15669623982450    0.33354341248682   -0.63591900963475
O           0.83724431616261    0.40011819495755   -2.01810058178795
O           0.21310000202602   -1.65481476347575   -0.92809963666527
O          -1.11345784655377   -0.83010997059160   -2.77576183783238
H          -1.89674780230101   -1.27197761224852   -2.37820720876424
H          -0.28136976500946   -1.86942120269973   -0.03257938730097
O          -2.85974655109917   -1.67527127516829   -0.98476050422538
H          -2.64201103391245   -0.80834395304480   -0.60848430267773
H          -2.62241824904889   -2.31034805637605   -0.30167847781524
O          -0.66525086187485    2.01626820420854    1.51174157118107
H           0.07446873152896    2.48306508377790    1.06745756285179
H          -1.11424161522723    1.55554263412357    0.79109996192289
O           0.52637745837305   -0.22632617472239    2.21586676266551
H           0.05239334901604    0.64088592921802    2.12073603293232
H           1.27445002486717   -0.16882837153112    1.59543193201860
O           2.40936745197870   -0.15904756536537    0.16323397378300
H           2.77873021845005   -1.02728914547964   -0.00920190728486
H           1.95029473895492    0.10233667286086   -0.65108599541299
O          -0.90328320109913   -2.08617490519417    1.25910302308308
H          -0.41596163610652   -1.30466865709900    1.72527274225001
H          -0.55791612077637   -2.88042580238968    1.67399757474466
N           1.39882610924273    2.79330313197385   -0.12186584015595
H           1.10493816327878    2.24591770909477   -0.92516672187668
H           2.22186045234480    2.33975624107430    0.25768956549982
H           1.67549539937031    3.70873515047294   -0.45406739502164
