    26
        -50.45613146  Gyration_radius:  2.45113116563 Dipole_moment: 3.999
 S          -0.58656788865749    1.11588762756231   -1.16991874545394
O          -0.15183252290410   -0.21007806281821   -1.54588875528587
O          -2.01064563524868    1.26506328367696   -1.13453817962376
O           0.00958400844678    1.44993726166396    0.22277610858490
O           0.04461025852779    2.16962904300980   -2.05055910330070
H           1.04515554075347    2.25624498195114   -1.75107149699527
H          -0.43410245117028    0.87249315455225    0.94473822008496
O           2.49281547166820   -0.31828034116879   -0.98837319077608
H           1.61619097990778   -0.45320725666888   -1.38270598740632
H           2.40260011943951   -0.66330386061812   -0.06945256424810
O          -3.36074604163309   -0.56687098310911    0.24867993671818
H          -4.29510707282383   -0.53581252011864    0.03839183124380
H          -2.93516975940911    0.10903030907558   -0.31769917625370
O          -1.13178450790832   -0.08915066678666    1.87509601272628
H          -0.98741344362083   -0.94525983218932    1.39239406819707
H          -2.08101540214954    0.06341278923190    1.78081820370341
O           2.36345939757680    2.25083033791567   -1.12778278673291
H           2.19550080701500    2.50921131622890   -0.21720875832733
H           2.57197353658536    1.26446402405512   -1.10123546953166
O          -0.97102573260954   -2.09395050668539    0.18206153739363
H          -0.62031427799780   -1.55570061480916   -0.55406199014231
H          -1.93018172520742   -2.08303564586822    0.06770201973224
N           1.81188649680442   -1.32909753589026    1.45282749629826
H           1.34270564711940   -0.65672191233818    2.04762523740678
H           2.48544385687094   -1.83067266820745    2.01792644738020
H           1.11398035059624   -1.99506171161267    1.13945908476784
