    26
        -50.44924658  Gyration_radius:  2.52466805391 Dipole_moment: 6.203
 S          -1.19507213513377    1.75342686974131   -1.49267543980918
O          -1.13392043506791    2.21269095747138   -0.12345114541351
O          -1.24961041417035    2.74435045496237   -2.49884312383250
O           0.02666079708353    0.79578555364058   -1.70136183422338
O          -2.37754942661466    0.78135711377174   -1.66156461677368
H          -2.28670080831242    0.00997843372044   -1.02412571617574
H           0.75552616908551    1.15175633752458   -1.08693982159539
O           1.32652448777499    0.22831986695159    2.17062513217110
H           1.56011297731784    0.59981530183846    3.02256018876465
H           0.33042055624923    0.24358133495620    2.12760450493847
O          -1.26382270751345    0.43732868483371    1.88263305699682
H          -1.62866684062611   -0.31059263185621    1.38929103187239
H          -1.31002296006579    1.19226027540509    1.26466237479926
O          -2.06431952703158   -1.28369401382744   -0.14162111753808
H          -1.22599050258200   -1.64226321197971   -0.58790604792944
H          -2.76131231746176   -1.91475046903130   -0.33054094525941
O           1.53745105122365    1.85033134720889    0.03428565765530
H           0.79719916583044    2.43961857640704    0.23721174211564
H           1.59610070668008    1.23228788675862    0.79910558175016
O           0.05855383313894   -1.98668279760315   -1.38994566886398
H           0.83499892562685   -2.03527364799663   -0.76859525103257
H           0.17212112918695   -1.15496250638621   -1.86685668505156
N           2.16444602014402   -1.87988831017823    0.26624154213254
H           2.46859972403469   -2.74666605616763    0.69081456813747
H           1.91318824929196   -1.23785803011050    1.01324868638688
H           2.95508427194029   -1.48025731011541   -0.22385666431666
