    26
        -50.47004711  Gyration_radius:  2.43940760409 Dipole_moment: 4.085
 S           0.19373485165948    0.52608620658946   -0.87871060253699
O           1.32733663373171    0.19715347444353   -1.87951550144481
O          -1.02747825853784    0.80368099436601   -1.60199202545871
O           0.03799104626094   -0.64370992596849    0.00020156635725
O           0.67274949469406    1.67692023889721   -0.11235204500361
O          -1.83379676231065   -1.68926754709801   -1.80109887901058
H          -1.51163777509118   -1.97249789867546   -0.94011377478310
H          -1.73487072409530   -0.71312592226651   -1.78436281542034
O           2.18210759611159   -1.30395171412630    1.37762827256894
H           1.44252632156723   -1.13571229731036    0.74835068309172
H           2.11650284577397   -2.22657079243589    1.62869433265675
O          -1.21156078048763    0.14530255821498    2.24363857951461
H          -1.67388909421076    0.92700962320494    1.87497953001689
H          -0.91041397611426   -0.34179013581655    1.45129496964733
O          -1.85126800897125    2.22574211643096    0.66895358027552
H          -0.92910268548962    2.27274983886755    0.36451025132081
H          -2.33924226398018    1.96068337819450   -0.11629727980294
O           0.33963834957437   -1.73943605638603   -3.29312941253721
H          -0.51167540396733   -1.87985220589961   -2.80423608236147
H           0.09781447915374   -1.39604539773468   -4.15598256173597
H           1.02550077458143   -0.57349076109620   -2.43819202295747
N           1.24553755941063    0.99570102473036    2.32956500245250
H           1.63848657512590    1.65984871927901    2.98639462631651
H           1.81842673719878    0.13152274474674    2.22491875601211
H           0.24219748119247    0.69557498312050    2.55904973369316
H           1.15438499726117    1.39747477357753    1.34780311919206
