    26
        -50.46081586  Gyration_radius:  2.44029268636 Dipole_moment: 4.674
 S          -0.23002428055183    1.57610160119917   -0.32415294871175
O           0.41878685885393    0.66963290978064   -1.27646962310754
O          -0.18524923487439    2.94928736200466   -0.73196590297075
O          -1.75025676495373    1.10805422835545   -0.28917676704124
O           0.25139021501855    1.32023342976719    1.02958152508018
H           1.29032526767101    0.25770179619423    1.51758751222107
H          -2.03951590094868    1.39230678950049   -1.17965384526900
O          -0.75038930065214   -1.62936441544776   -0.71682015292308
H          -1.68944283205158   -1.44716006887949   -0.78902783183923
H          -0.30141281611082   -0.78928250843575   -0.95698149632743
O          -1.68348894174935    0.05239938117536    2.39268509834719
H          -2.47920469559656    0.22153704746923    1.88426919626722
H          -1.00720580258759    0.64029580570037    2.00466852926763
O          -1.63527462976629    2.05661838546538   -2.73129114980450
H          -0.98667891889764    1.47978770262360   -3.14432534012926
H          -1.11124726017927    2.69617614829530   -2.21096140955707
O           1.81268219729901   -0.58846427160737    1.69134542066629
H           2.22229170816222   -0.83759958862214    0.71021502524261
H           1.04247436303600   -1.30087393362925    1.86503249184620
O          -0.17574675722139   -2.08708689264001    1.86183183944728
H          -0.39581284879279   -2.11062932495645    0.90390277797095
H          -0.81644669798465   -1.44851643204848    2.24862276876983
N           2.53963950182944   -1.03775432488669   -0.67792157980217
H           3.48118077181231   -0.82242003216500   -0.97714338031365
H           1.89081386367339   -0.36096697023638   -1.09318947167285
H           2.28781291556697   -1.96001384398168   -1.01066129564391
