    26
        -50.44772013  Gyration_radius:  2.48775124467 Dipole_moment: 6.711
 S          -1.29764329415850   -0.72554152784833    1.95218015570874
O          -1.72435295066908   -1.31191288740006    0.70603831295362
O          -1.42860483203433   -1.52214757514418    3.11655846071148
O           0.20494086514147   -0.28903689080685    1.76775745776221
O          -1.96788869860038    0.63452338321990    2.14928884142301
H          -1.84260012124626    1.14036891811957    1.26514487659057
H           0.72193001731592   -0.90005291292387    1.10783869676243
O           1.50132529693934   -1.57167232043432    0.03682634967931
H           0.82941778904193   -2.01572915953744   -0.52540638908146
H           1.83329503232575   -0.81332611863840   -0.48275440546109
O          -1.42565905025286    1.86819506447714    0.01559150462738
H          -0.57438904298245    2.26583911772603    0.24464559309374
H          -1.23073637078565    1.26417074458736   -0.75956789569478
O           1.19065047427311    2.10248170758590    1.04914519966809
H           0.84521237419455    1.26665786508468    1.42654876784456
H           1.52149167392875    2.61989222395182    1.78497788457855
O           2.27356523380906    0.79341411557200   -1.11523669883672
H           3.21485767925238    0.96645646590350   -1.16871257860415
H           1.92113102665809    1.36498436094316   -0.40784641327233
O          -0.60828343579305   -2.57367367486578   -1.28277647628716
H          -0.81683968518780   -3.50844982381719   -1.24560913932520
H          -1.13729338684931   -2.14818610542420   -0.56901199555674
N          -0.60988431705493    0.41474316294859   -2.06049688724558
H          -0.99244045530574    0.71692440439191   -2.94702534657527
H          -0.79745781000166   -0.57628204007986   -1.96317876229824
H           0.39625600803618    0.53735951240683   -2.09491912315419
