    26
        -50.44506795  Gyration_radius:  2.5181776698 Dipole_moment: 5.417
 S          -1.41553942852365    0.41860709525051   -2.23111539107019
O          -1.08384302272792    1.56414819537323   -1.41943973061220
O          -1.55988395610991    0.62965973476526   -3.62204003247315
O          -0.35078984264282   -0.68688845694569   -1.94058751926343
O          -2.69247696383069   -0.24030737514590   -1.66136895877799
H          -2.51965523538017   -0.30995788815732   -0.68647159924040
H           0.53896006935525   -0.30180754218142   -1.59826640909465
O           0.02510014301990    0.97126352145220    2.05664677192203
H           0.33389280708052    1.67622582371143    1.47136756859111
H          -0.78807719050387    0.63370366351567    1.65666076114841
O           0.92211624508127    2.55719398271821   -0.09070486897015
H           1.14391945864664    3.43579206867420   -0.40239234110630
H           0.10983172576502    2.28757434525521   -0.57798565222626
O          -2.03872814339256   -0.57883357108837    0.83675506277348
H          -1.37860068235992   -1.31585313225560    0.69465879127202
H          -2.75065316297168   -0.94578253627952    1.36479976015622
O           1.80560659484670    0.13384697913134   -0.91232596960943
H           1.90118829152813   -0.38377234251358   -0.08976619291392
H           1.64681624531720    1.05593987006930   -0.62660821759786
O          -0.22922606565908   -2.37304275688809    0.25025317741208
H           0.60711528346353   -2.04191866737896    0.61773414671148
H          -0.21539830077757   -2.16269478493577   -0.69358390128821
N           1.93953629092922   -1.07989412678141    1.62586739684393
H           2.88150544515171   -0.72032050507710    1.73921704572700
H           1.86537985553755   -1.86805523870812    2.26042080867808
H           1.30190352915352   -0.35482635557996    1.97827546300302
