    26
        -50.45145008  Gyration_radius:  2.53542405473 Dipole_moment: 0.458
 S           0.86616172827592    0.76087263280476    0.55618654190474
O           1.28311126994051   -0.62023862125812    0.50417793624716
O           1.05146410727132    1.48589161231616   -0.66384689158686
O          -0.59202398053412    0.82739304327153    1.02163932910874
O           1.60516998864283    1.49394083846377    1.67842802402883
H           1.22389927025257    1.14487178129579    2.55383909123188
H          -1.19977902941659    0.08993584106781    0.56121453202663
O          -2.04901894408537   -0.86231734647907   -0.06176952089534
H          -1.86026291942359   -0.80993922388656   -1.06754123641268
H          -2.95818169226673   -0.57412638169390    0.04906190195530
O          -1.53794555608285   -0.52616986790052   -2.53401896370301
H          -0.58778175626724   -0.79119929364049   -2.60349066066058
H          -1.52589472898596    0.44967859678438   -2.52665854716091
O          -1.12513951504743    2.12432366759912   -2.08647676754055
H          -0.85812041431938    2.78128348286172   -2.73143602442978
H          -0.33860780447831    1.95092711256681   -1.53338662741563
O           0.42855343455274    0.49762866693088    3.70283577812157
H          -0.47540563238916    0.77010564044781    3.52235310721492
H           0.46686394808417   -0.46655663083080    3.48468501858081
O           0.57390074793228   -1.93218554543966    2.68844824868317
H           1.26957641215254   -2.55589175798929    2.90412884603960
H           0.79277755829252   -1.56946255750759    1.80393333734033
N           1.12127325562038   -0.93740665006715   -2.39303197556229
H           1.20654461903884   -1.03450454935192   -1.38456170957727
H           1.53225041677908   -0.03924524609759   -2.61909856168765
H           1.68661522653582   -1.65760924427094   -2.82561420604209
