    26
        -50.44772011  Gyration_radius:  2.48777944702 Dipole_moment: 6.712
 S          -2.44309754022745   -0.13875918829703   -0.18465296558555
O          -1.83978676992048   -1.23633379784094    0.52957219899041
O          -3.73445613458144    0.26843643899421    0.23257502241710
O          -1.44359943738360    1.07596365851952   -0.09646071547975
O          -2.42311164236859   -0.41630672673641   -1.68812263872297
H          -1.46625886793118   -0.71690058131566   -1.90578873730506
H          -0.88939970909910    1.07643017367356    0.78044736861807
O           0.09756559090568    1.06916471090089    1.89017228053945
H           0.08428932513704    0.14975149293756    2.23547350137283
H           0.94470938793778    1.16889717644169    1.41305607003011
O           0.45348490146289    1.82918553851082   -1.84031267870209
H          -0.31241196826590    1.63240332946931   -1.26147535865115
H           0.19508298414509    2.56560422680955   -2.39667051482805
O          -0.16472100352506   -1.52881360027154    2.50484990418469
H          -0.83490950108478   -1.53478265498435    1.78294272408221
H          -0.62689592263576   -1.80570410548020    3.29757027682393
O           2.23830974179084    1.40985925015032    0.21128781940389
H           2.77788981889153    2.19087065159663    0.34434664157728
H           1.70725123065246    1.56695964626028   -0.59159332082522
O           0.00131862483983   -0.93947328014823   -2.15399154023356
H           0.35096549617163   -0.05383680175386   -2.32320443861713
H           0.50303289129331   -1.26856728047332   -1.35169195105729
N           1.53972215149243   -1.55392001115070   -0.06977443373168
H           2.07561781534053   -0.71509753246545    0.12448800307208
H           2.19122634190179   -2.30672576523991   -0.24984212486672
H           1.01818219506300   -1.78830497810059    0.76679959750255
