    26
        -50.45123057  Gyration_radius:  2.47041331341 Dipole_moment: 4.660
 S          -2.09193901656780    0.06765190870398    1.16723006563043
O          -1.49042122168987    0.80516859522449    0.07843291290663
O          -3.50111876048012    0.14787067591284    1.27511079309189
O          -1.61650171802797   -1.41224772906374    1.05761651689180
O          -1.43058437566080    0.49764905455539    2.48857620682778
H          -0.46485017217326    0.23588813168992    2.39480063103392
H          -1.39202928889019   -1.66655202068742    0.11631616402075
O           1.90169572356448    0.73446594381519   -1.67838440956183
H           1.62770520896636    1.34078967986431   -0.92445334805588
H           2.71823326934872    1.08066726173962   -2.03889919494410
O          -0.70075516175919    0.22970917190472   -2.43170166929409
H           0.24849612891765    0.43455202377988   -2.36764974265285
H          -1.10215187075675    0.65052304502523   -1.65142949083186
O           0.99896156722730   -0.28956877235319    2.21019736279241
H           1.13094974208465   -0.97521249456772    2.86799415292184
H           1.17095771162806   -0.72754005765315    1.32882620402898
O          -0.96026521593758   -2.09246334629601   -1.34850831519605
H          -1.64506820953373   -2.60364783750633   -1.78238027847211
H          -0.86831289285738   -1.22965745478075   -1.86594703715320
O           1.49723903550452   -1.45493789950209   -0.08632343474088
H           1.73242467386199   -0.74310279245071   -0.71091314361341
H           0.73997607317764   -1.90847184215984   -0.47593563836362
N           1.02637504279472    2.14254526715992    0.37505727639825
H           1.01979556060406    3.15080772082440    0.46032173072626
H           1.39293430822907    1.75619269604570    1.23738529725672
H           0.05825387842179    1.82892106077428    0.30466039835160
