    26
        -50.45205348  Gyration_radius:  2.50091822997 Dipole_moment: 3.847
 S           1.03755272987495   -0.81243426954992   -0.04667342111784
O           0.97445405898815   -0.16587001465580   -1.33531153338560
O           1.78469289678138   -0.10623202984858    0.94857625431023
O          -0.39465160593118   -1.08088685928093    0.44132896421633
O           1.61590592973147   -2.22250081489581   -0.18280025649655
H           0.93294042372221   -2.77716944497302   -0.69089295585030
H          -1.04335267240335   -0.31546067187339    0.10320292829344
O          -0.29796354813696   -3.39471627059118   -1.38606526468189
H          -0.53512888947646   -2.73051976689891   -2.08098227523271
H          -0.99553881826922   -3.34600151989954   -0.72731906948373
O          -0.80548006737188    2.69476359580066    0.90200796417711
H           0.03996706944910    2.80191707400064    0.41815469522914
H          -0.55533866153223    2.24828226409272    1.74529709854027
O          -1.88590314193313    0.74739125221231   -0.31833554541814
H          -2.77278923255221    0.64822042236098    0.03450962972451
H          -1.49227123669315    1.58845063902902    0.11996011266800
O           1.57023467218109    2.32546658899358   -0.32672418983024
H           1.95590587122262    1.73392839767898    0.33251840218611
H           1.34010524869632    1.73369833627187   -1.05435248769879
O          -0.75895453003088   -1.33693812894750   -2.96242216219931
H          -0.18355946570853   -0.76321079142939   -2.41446133809824
H          -0.43447716342461   -1.26353655216188   -3.86175960042443
N           0.08026089778254    1.13573334791302    2.94084286457433
H          -0.52707588618166    0.44461494907566    3.36307638685610
H           0.60510685584304    1.57755602910775    3.68559235946911
H           0.74535825534998    0.63545424849910    2.35303243965095
