    26
        -50.47004686  Gyration_radius:  2.43949333043 Dipole_moment: 4.086
 S          -0.88894361079820   -0.54081285862920    0.06605031349831
O          -1.02537867133146   -0.54067929668570   -1.39087988543114
O          -1.91905609664071    0.23127856828339    0.72517034388315
O          -1.00049153596229   -2.02487723226568    0.48989419675193
O           0.45286541932864   -0.07785694985747    0.45343567105506
O          -1.62743672497435    2.08956851413685   -1.35149255915785
H          -2.11188136442065    2.14478959547042   -0.52244131423049
H          -1.58997375484629    1.13553530001250   -1.53525727093066
O           1.03409781161928    2.11170634583662   -0.99054954933353
H           0.11621681562579    2.40105679614446   -1.17703771347441
H           0.92936012608854    1.44931786443566   -0.27922666376716
O           2.45515762654440   -1.38753251536271   -0.64507746323262
H           3.23525067480309   -1.27437727330712   -0.10003782672010
H           1.70277614038386   -1.01072118766899   -0.13212436604106
O          -0.58261201334557    0.69171274958688    2.94000296844199
H          -1.20967016826704    0.67437562785261    2.18530994632180
H           0.28071606151890    0.78515181933788    2.52623594217890
O          -0.89690240313946   -1.92235517860669    3.07887530830072
H          -1.77647236645340   -2.08325886581340    3.42719151391279
H          -0.92968899366182   -2.06311950427781    1.48517349547027
H          -0.72749769780527   -0.95226924383768    3.19612744659097
N           1.23674504540462    0.02955509203951   -2.53688966338117
H           1.92818135459388   -0.58196612201602   -2.05316724124388
H           0.28083140365165   -0.31480949141170   -2.21880744513140
H           1.29855023134711    1.00439584900210   -2.09503346427426
H           1.33525670075755    0.02619155755774   -3.54544473005162
