    26
        -50.45025705  Gyration_radius:  2.47430217105 Dipole_moment: 4.736
 S          -1.04654652885721    0.21894723850268    2.17178488489269
O          -0.96862297422145   -0.80437054114478    1.15319092114183
O          -1.19915051892227   -0.23606115134253    3.50397422270031
O           0.20642467637552    1.13036828030866    2.02800180321570
O          -2.17101802300812    1.20867995338419    1.80996997648752
H          -1.90217625493987    1.57425752355262    0.92084206067645
H           1.00441752791255    0.64301112817848    1.65778789900655
O          -1.97956471677636   -0.50003530361071   -1.31624029323018
H          -1.71087109696769   -0.73704428496896   -0.40799993295475
H          -2.10116112949742    0.45628379400977   -1.29406446181167
O           2.26838945307471   -0.04324965486833    1.03892179605657
H           2.88426185318048   -0.28156387347319    1.73318145110263
H           1.93852282301994   -0.91600685363097    0.61069192120848
O           0.32749468425642   -0.85268134917829   -2.55897520904270
H           0.19900034549706   -0.76375639440742   -3.50406299588265
H          -0.57558514881671   -0.80674982183079   -2.14943896707519
O          -1.33322667405963    2.11927326773410   -0.46311580293681
H          -1.31254753722916    3.07700230649075   -0.42020885977726
H          -0.39428001592958    1.83536236557267   -0.67366633990394
O           1.06898074657692    1.34565008241938   -1.12551361304214
H           0.91802365024579    0.55602725660357   -1.68391943210700
H           1.62858712590689    1.04983110547072   -0.39755450233762
N           1.24833390883182   -2.15422065588815   -0.04933793393518
H           1.53085473681273   -3.11673057350356    0.07798949938426
H           1.13594362765361   -1.97983605976802   -1.04332071054252
H           0.33551545989431   -2.02238779460810    0.38108262869891
