    26
        -50.45025705  Gyration_radius:  2.47435516033 Dipole_moment: 4.737
 S          -0.83691780119295    2.18991711655883    0.60377099890195
O          -0.98023188092676    0.84453176451901    1.11385833190143
O          -0.94978849836040    3.23360595760709    1.55405542924868
O           0.51637604977793    2.26786731196606   -0.16029868256480
O          -1.83657846695489    2.40311315905786   -0.54956315284207
H          -1.58800301721928    1.71017712964822   -1.22373613398836
H           1.20782463723929    1.63433106973221    0.20286428558517
O           1.15710183438812   -0.61428433941192   -1.58259254908839
H           1.72387477222301   -0.14452498603144   -0.95913413572762
H           0.85527940907676   -1.41922237198142   -1.11454702140940
O           2.31272127302356    0.63616393741484    0.68716521021336
H           2.94090469265146    1.09110563208828    1.24975555405383
H           1.83272459284540   -0.06153138570098    1.26744711594149
O          -2.12464792186961   -1.14305641432483   -0.28343516320775
H          -1.82298157711112   -0.44927827416133    0.33377310396262
H          -2.10972704795640   -0.72249524149259   -1.15102933312028
O          -1.05604447506283    0.60282944464162   -2.23710452644542
H          -0.18473037458347    0.17833213206760   -1.97793669826253
H          -0.89883003356157    1.02468053579549   -3.08376727988112
O           0.00895264378094   -2.70462700890377   -0.25977462966192
H          -0.84492704981238   -2.20015602846193   -0.21765615218497
H          -0.17778207047645   -3.50933431725618   -0.74474182403791
N           0.92837091280458   -1.07068939453672    2.04775365748209
H           0.76570216743903   -1.88721408215144    1.46647953414112
H           0.07843190669832   -0.51148205141920    2.02002834858516
H           1.08292529315425   -1.37875929527564    2.99836570240931
