    26
        -50.45108167  Gyration_radius:  2.4312622107 Dipole_moment: 1.771
 S          -1.09422694230714   -0.34393607346011   -1.74856495454426
O           0.31138263453599   -0.66991611463560   -1.70224321443397
O          -1.93542074848506   -1.30506674842321   -2.36284213025261
O          -1.56204198175509   -0.07136306762321   -0.28135466345312
O          -1.29265444050681    1.04016415957154   -2.37496042397716
H          -0.72324447766396    1.68272881578845   -1.84292790750049
H          -1.24412488095517   -0.81988150233701    0.31610518734275
O           0.40950784117028    0.45691123532069    2.29726789617548
H           1.05799034992367    0.50263967075742    1.56284752276137
H          -0.00806747463214   -0.40764172651529    2.22779780328000
O           0.04329382979553    2.66855686714547   -0.91265352355234
H          -0.44045677948427    2.56132724974466   -0.03042835519452
H          -0.12308993942984    3.56818689028261   -1.20077122445233
O           1.86280912052651    0.67838324708716    0.02590873923345
H           1.69655248696918    1.59373505778275   -0.22210228471462
H           1.36715273486294    0.15430706116341   -0.63133145615626
O          -1.26348571464031    2.24213321527156    1.27373248949508
H          -0.64096579754906    1.68786481894203    1.80833414299698
H          -1.91219742765226    1.61650688553780    0.93496356431570
O          -0.71211824271535   -1.98379744908659    1.19818395680651
H           0.20217328378735   -2.23047804434461    0.82540919103158
H          -1.27821423784405   -2.74791508441856    1.07617018857866
N           1.60332052308257   -2.48855997658418    0.10385164584469
H           2.31319141791077   -1.88445032550789    0.50122255711987
H           1.35412963245535   -2.09618255818605   -0.80145753480350
H           2.00880521059179   -3.40425649327172   -0.04015722193844
