    26
        -50.45452718  Gyration_radius:  2.48526880258 Dipole_moment: 5.378
 S          -1.33092985410915   -0.84803458255657    0.36353010364149
O          -1.18349628832638   -0.60702795254998   -1.05914166108496
O          -0.94028964633846   -2.15055008417782    0.79499600679413
O          -0.49956524005354    0.22132782110354    1.11495583461480
O          -2.75134342381901   -0.52219037282951    0.78935485507002
H          -3.01186064654741    0.29051531567134    0.19996681593880
H           0.52357837210204    0.08567202767184    0.95349126073903
O          -1.15884662186252    2.83789403530930    0.32074271632538
H          -0.35123314641903    2.83805325970703   -0.23003317487023
H          -0.97923713400923    2.19892061984869    1.01988467953897
O           1.22403140520865   -0.25785054227532   -2.00690264116427
H           0.29499065076945   -0.42476903755582   -1.72202534335568
H           1.32933337450438   -0.68232241345988   -2.85952118387543
O           1.92829853016454   -0.19461862497361    0.62918381834852
H           1.92065577833971   -0.29616609559948   -0.33839632607756
H           2.02528839104250   -1.11972203804502    1.00139416258911
O          -3.03292711100625    1.38340572652231   -0.80874645251739
H          -2.49910101954001    0.91634110025690   -1.46421423007452
H          -2.43776318699751    2.08291485821403   -0.42517427947859
O           1.22317679466534    2.32233665005357   -0.90236800885616
H           1.21535105904913    1.54678611154968   -1.48224706595721
H           1.78592756106452    2.08552848324930   -0.16024681470973
N           1.78876410683250   -2.68643194711804    1.49285623567748
H           1.92191034475351   -2.85812100733076    2.48147961887634
H           2.21051841561755   -3.45563057034914    0.98755326195164
H           0.78476850491885   -2.70626075032335    1.30962781191526
