    26
        -50.45019003  Gyration_radius:  2.49732189179 Dipole_moment: 5.272
 S           1.70856366101100   -0.56806420431876   -1.61126654718633
O           2.29252543503038    0.35952206862616   -0.66849663380216
O           2.37707157804173   -0.74866279970719   -2.84392583055919
O           1.51247729580070   -1.94025559160371   -0.93657951765991
O           0.23076581256489   -0.11366790445842   -1.83803806529683
H           0.19945819400118    0.87551634018327   -1.59608621308408
H           1.10064935342726   -1.83967280994318   -0.02611328764655
O          -0.47544437406334    1.92269216327292    1.48253345260422
H          -0.60354715236911    2.62085525696164    2.12571109389099
H           0.37042326697090    1.45267831747754    1.73818333362198
O          -1.79894779095980   -0.51023498787402    1.27551785507050
H          -1.51449813613379    0.41524481923998    1.35282859110143
H          -2.16867474153895   -0.60898179458465    0.36349410827038
O           1.72239941250490    0.59144534356747    1.94268095815350
H           2.11283862417829    0.57279031815998    1.04837576092110
H           1.41368156773904   -0.31389598315145    2.08758942270196
O           0.41922040641727    2.27578415296344   -1.03318596017091
H          -0.01853591931122    2.26331836963462   -0.15384315469556
H           1.35668938099485    2.10661358014181   -0.86221706589752
O           0.42083085187988   -1.78586251871887    1.39437479129682
H          -0.47718252084762   -1.31083064977613    1.35190157154072
H           0.23766250297980   -2.67969456827455    1.68817605290833
N          -2.59107225577053   -0.74901929931750   -1.29720877901720
H          -2.97838751651062   -1.63150096546854   -1.60639905422790
H          -1.67098805016126   -0.64701649479353   -1.71647374950437
H          -3.17797890584758   -0.00910016826289   -1.66153313334308
