    26
        -50.46220857  Gyration_radius:  2.4228015805 Dipole_moment: 2.977
 S          -0.48551688901407    1.08784374330711   -0.39578613409608
O          -1.60591435339065    0.22548165007974   -0.04633486701513
O           0.08346182876665    0.73934104011783   -1.69072378173098
O          -0.98279192199592    2.54730738643786   -0.49169597543116
O           0.54320419706715    1.03372818070026    0.65326380483717
O           2.47301991190065   -0.11572076686971   -2.36579780387617
H           1.62114743709149    0.36616127019828   -2.27480600986078
H           2.27600059904268   -0.90432823070471   -2.87767123201784
O          -0.49719716524090   -1.84333739886647   -1.74249283713660
H          -0.32406092965931   -0.88296486876923   -1.83168300791085
H          -1.40383271599762   -1.89318669175971   -1.42927971771890
O          -0.57237774715227   -1.18985884464967    1.93311345462602
H           0.02263034926327   -0.50801704872718    2.25964612449781
H          -1.07403199167757   -0.74570554537299    1.21534756899780
O           1.03859709471326   -2.50505649888326    0.30923410519743
H           0.50255514737109   -2.42558904747739   -0.51937466217369
H           0.42423867753480   -2.22064513115073    1.03297673258656
O           2.47238613703327   -0.49359813525638    0.16536505298763
H           1.92991439216635   -1.44866899869397    0.25237599681397
H           2.64397348781861   -0.35675639393726   -0.83004402174895
H           1.75166966508632    0.20960057987009    0.40896317717252
N          -2.23194803028633    2.30425974973712    1.78190048869029
H          -1.47518689254029    2.67219093880477    0.37044392508028
H          -1.61684384009838    2.26896898371655    2.58387411860704
H          -3.10795651235828    2.72369673498769    2.06464050466007
H          -2.40513991544426    1.35485331315320    1.46454500595130
