    26
        -50.46248030  Gyration_radius:  2.44530211711 Dipole_moment: 7.592
 S           0.84360930334198    0.15811613252220   -0.73141635582776
O          -0.43517355499283    0.86143070366820   -0.70001530883717
O           1.69112912855000    0.48592973979703    0.39644032916818
O           0.52102746824719   -1.36580692406535   -0.67590103607343
O           1.48678709164520    0.36451909395968   -2.03226591930141
H           0.36603388965582    0.51291757911284   -2.85941978742697
H           0.23239879009011   -1.64005504211216    0.31061763150536
O           1.93985560563731   -0.83666472362522    2.77681097871240
H           1.62865477324043   -0.08657537635893    3.29495140022999
H           2.15359968609878   -0.46410507547214    1.90512254096397
O          -1.55940298179587    0.39996620777757    1.65012052017760
H          -1.25885528558326    0.63781075284602    0.74793914565487
H          -1.00247619050792    0.94405778471589    2.22946184254368
O          -1.82718849734258   -1.28897842853134   -1.95732659877522
H          -0.98368887308757   -1.53628862229481   -1.52520068696382
H          -2.35447972624807   -0.88649835824780   -1.26068454821637
O          -0.23260748477322   -1.87469961201756    1.63479313667789
H          -0.85772693559714   -1.11532294550850    1.76872810554718
H           0.55871646851106   -1.67323571502842    2.18829119041381
O           0.67059878581714    1.79556214372589    2.48695406281826
H           0.79998148629186    2.74046028582630    2.40189860210151
H           1.05932500350246    1.39228347451321    1.68070701429644
N          -0.63341969145466    0.60827936697904   -3.36195520089462
H          -0.57692893853064    0.50824563654604   -4.37054108735118
H          -1.00981560165821    1.51270329778399   -3.09110798402585
H          -1.21995370907361   -0.15405137648863   -2.90700197712549
