    26
        -50.46414190  Gyration_radius:  2.44069881523 Dipole_moment: 3.672
 S           1.27011384391305   -0.18823509644081   -1.09821395652598
O          -0.08742420056790   -0.70989665231477   -1.32075486838569
O           1.67801928027531    0.65799193815871   -2.20631843619979
O           1.32590132573817    0.51146044367015    0.18520977167696
O           2.24987573768274   -1.38247409955497   -1.04439993797035
H           2.04537552564654   -1.94827222277129   -0.24532899437096
H           0.39737092210153    1.94881707158355    0.20357413921955
O           0.33546215746111   -0.84273997822438    2.22797406140549
H          -0.51365377083858   -1.09640451934510    1.82694513482790
H           0.74437231877451   -0.22947837239036    1.57881104172595
O          -1.98534925308017    1.19967350760905    1.71827163368181
H          -2.13021414003057    0.35117606052562    1.27029529926899
H          -1.40639557188503    1.00314958601583    2.46089784297723
O          -1.78218350234346   -1.29023405810761    0.54297084012926
H          -1.13380830818155   -1.09212101396851   -0.18344615434533
H          -2.14822473697175   -2.15307304129724    0.34543560339615
O          -0.36388607544877    2.55500257904378    0.06965018483239
H          -0.66545633185666    2.17952705564829   -1.35463594732977
H          -1.05646178101763    2.21550426124647    0.68108266455751
O           1.79040941488281   -2.73449245201582    1.12633284339318
H           2.63209020166205   -2.82708617540378    1.57677213205336
H           1.25015311172591   -2.10002288479973    1.67012634682876
N          -0.66239153806335    1.65962911362089   -2.31671063805428
H          -1.11342512822153    2.16332107269199   -3.07260874337410
H          -1.04285804021545    0.71689905156201   -2.15696944370760
H           0.37258853881760    1.43237881527082   -2.48496241971861
