    26
        -50.44909894  Gyration_radius:  2.60528139682 Dipole_moment: 7.944
 S          -0.25096763917799    2.60561740614851    1.18384759516081
O          -1.33386347184559    1.64459430554565    1.32946081012051
O          -0.21161942724358    3.63878395339496    2.14798040315668
O           1.07340853679546    1.76914005831740    1.18933810813607
O          -0.26308810626529    3.18475626040837   -0.22552402665230
H          -0.26458709565601    2.43570341532419   -0.94048877912420
H           0.90461313424042    1.01991975408325    1.84672492189006
O          -2.13812972795059   -0.10446808837180   -0.41803099845552
H          -1.90012771632287    0.56864392197484    0.26796895401205
H          -3.09508472591582   -0.11298699115766   -0.46457521267679
O           0.24139099281949   -0.13784315776325    2.65447868784957
H           0.20061722626728   -0.88078246844336    2.02302878204442
H          -0.63101248585297    0.27817086368176    2.62792914933947
O          -0.07135416863693   -1.71112655220908    0.46011347344583
H          -0.88741873003351   -1.31084728344385    0.11728227632075
H           0.18130126045450   -2.41321266059251   -0.18101611629543
O          -0.26429450289549    1.26361175617323   -1.86214787534285
H           0.55312467822414    0.75852830204300   -1.63090337615234
H          -1.00994962067934    0.71083140033423   -1.56860936155332
O           1.74946462675253   -0.10245576641202   -0.79314370441980
H           1.19460121190658   -0.70362900550722   -0.25379718351195
H           2.03714793724076    0.59359372410186   -0.19240414624795
N           0.90222308481283   -3.17213487660329   -1.61033254125752
H           1.46212536268758   -3.99085499576770   -1.40792919752735
H           1.53010960410530   -2.43525566304836   -1.91327916206291
H           0.29136979218577   -3.39629758223301   -2.38597149018844
