    26
        -50.45262561  Gyration_radius:  2.47251903893 Dipole_moment: 2.855
 S          -0.64582683291130   -0.96791784532246    1.27031295713991
O           0.03016477469999   -1.79016930590577    0.30091424469128
O           0.12254603551355   -0.62625904213430    2.42992660294436
O          -1.11666042758641    0.32773747273545    0.58526266960531
O          -1.96537148443391   -1.62196844816178    1.69569291652524
H          -2.34295828850219   -1.94244777148438    0.81409069102309
H          -0.57642805201966    0.57786057857432   -0.28895962494586
O           2.20304781346339    0.89174105305867    1.78365495937485
H           1.46404374225480    0.30189472112154    2.04746502257945
H           2.67220470105121    1.10311267439360    2.59332506374448
O           0.83784985110418    2.82626363119069    0.41805050370968
H           0.03717645505863    2.85659491302538    0.94610853289957
H           1.43849212967621    2.21050198532934    0.88268611269573
O          -2.43967063242423    0.08534068605116   -2.04785411873177
H          -1.52783104063121    0.39042074213310   -2.15796960920583
H          -2.85238733071792    0.70156169642569   -1.43873998259535
O           0.15598957648680    1.05163202805099   -1.43567331974077
H           0.44360824910423    1.89325669761622   -1.01539875927787
H           0.98110129492210    0.46750933700802   -1.40841696482179
O          -2.41696381829687   -2.28142404671775   -0.71955947915685
H          -1.46871742214314   -2.46784205549432   -0.76506980369774
H          -2.55470922038650   -1.48771647068856   -1.28100875094979
N           2.22807529545559   -0.45351778826018   -0.94682510424587
H           2.67662459797824    0.01423823070918   -0.16628684535365
H           2.94521841241168   -0.84990997761258   -1.53949182393303
H           1.67138164085859   -1.21049371561783   -0.55623607028435
