    26
        -50.46220840  Gyration_radius:  2.4231591704 Dipole_moment: 2.981
 S          -0.73283423546960    0.85570965643016   -0.55013111077024
O           0.00393214265913    1.14742199684556    0.68826168406686
O          -1.36899523293977    2.17520345525863   -1.04061971869591
O           0.17791290337069    0.35824136883746   -1.57190349001308
O          -1.82046871597001   -0.07823553973309   -0.29191051958339
O           1.17936327976647   -2.22460640837335    1.05680525250860
H           0.52692636994563   -2.45215836858302    0.34762719494722
H           1.80690893661649   -1.59050964799252    0.62525415470117
O          -2.50504275999818   -1.39294003155026    1.87578523072377
H          -2.47029923115457   -0.83030716970070    1.07054903498224
H          -2.56481411863741   -2.29872521591079    1.56164391973512
O           2.33175534081844   -0.17018382966509   -0.13216716119663
H           1.60649200477741   -0.02630148058663   -0.77820470823784
H           2.19711584877165    0.51650768812470    0.52808311001356
O          -0.60017567391571   -2.34808913321657   -0.89838107967760
H          -0.12371806728051   -2.15530124156862   -1.70983993386256
H          -1.14080530808204   -1.54651994141994   -0.73871418820835
O          -0.12468647495185   -0.64195297329558    2.44142579737799
H           0.48308188195300   -1.40054602196376    1.92278428855535
H          -0.08193919235071    0.17175552230953    1.80151500001669
H          -1.08925236110989   -0.96668771650291    2.38558688785138
N           0.96949285038088    3.07773237446756   -1.75188808769714
H          -0.57500183204838    2.71358921508840   -1.32548090328704
H           1.56751977927820    3.32970346723625   -0.97624834500572
H           1.14996045591145    2.10896791664376   -1.99892052840559
H           1.19757139965350    3.66823204881590   -2.54091177083960
