    26
        -50.45979809  Gyration_radius:  2.51803045095 Dipole_moment: 4.672
 S           0.27776591474166    0.67595241358258    0.28130055876752
O          -0.09418015272655   -0.21611461297947   -0.83563534516422
O          -0.58068269303305    1.82907663387114    0.36113110754501
O           0.13851733084600   -0.16780600816447    1.57521019581002
O           1.69799703797567    1.00963788616297    0.19283880795503
H           2.54697062704030   -0.02288306931899   -0.25267461989802
H          -0.86653765477406   -0.26017209750057    1.80211577082519
O          -2.33183696344665   -0.29440256866849    2.02246615896576
H          -2.47402432934051    0.60495029061758    2.38302693909218
H          -2.67856443295244   -0.25355346190275    1.10172266183032
O          -2.13657251417445    2.34982923693104    2.45630583611723
H          -1.60055822637985    2.76000716698993    3.13642971619647
H          -1.57037823939130    2.29531750657694    1.65857810264261
O          -2.71622340253156    0.23396764163140   -0.56539689710976
H          -2.72619343429529    1.19381836196130   -0.50596351640284
H          -1.79841752087187    0.00834417930001   -0.80330769362889
O           2.99070302165099   -0.88772448324298   -0.69190410236156
H           2.41286634296418   -1.63283833390943   -0.31098869333244
H           2.63631466748105   -0.79583730952550   -1.70479567989910
O           1.07979566435156   -2.35858439433680    0.13724047470781
H           0.48923920203997   -1.68802595372074   -0.27494942385977
H           0.91298809523891   -2.28602163053670    1.08184452726854
N           1.79415619555093   -0.57790518863406   -2.89496352146223
H           2.03233159018619    0.22758301723996   -3.45832698137793
H           0.92806074380632   -0.37692515692241   -2.38659778760421
H           1.63646312007814   -1.36969007540978   -3.50470660565938
