    26
        -50.45192225  Gyration_radius:  2.49129991422 Dipole_moment: 5.221
 S          -0.65356819142290    0.94618081361521   -2.07407360009902
O          -1.47738781200775    1.57289164867210   -1.05631192828194
O          -0.50992033532549    1.65662500053947   -3.28946689149503
O           0.73306191549867    0.67249175360434   -1.41709053393396
O          -1.16237893578709   -0.47097937535512   -2.35794462662249
H          -1.26434535403500   -0.99874254832826   -1.48997827009970
H           0.82882411828840    1.36260866334863   -0.65602938183612
O          -0.05733036626576    0.64855720208584    2.31131486247815
H          -0.99850413710340    0.58454195249819    2.08561005031389
H           0.33332951790100   -0.20570248152391    2.06207163930674
O           0.70839280872520    2.34064157885789    0.45563308031891
H          -0.13678457583912    2.72417626056131    0.19496258729392
H           0.51224451403870    1.77058589318791    1.25085762704192
O          -2.53029291102949    0.47184694204529    1.05630835461725
H          -2.18258156869869    0.94324636335707    0.25931062431498
H          -3.43785288920982    0.75821833762908    1.16617327564241
O          -1.41801133588410   -1.69347184957341   -0.14252466623666
H          -1.95581413902377   -1.07520547668066    0.38498878358399
H          -0.56677085183885   -1.77525398948777    0.33366766855919
O           0.88155051993161   -1.75161519819116    1.29889307674018
H           1.13489920271556   -2.53441205589741    1.78965059099147
H           1.61995002003994   -1.55866857160552    0.65072266896832
N           2.75871307914643   -1.20404738411743   -0.49494040352118
H           3.08831189994712   -1.93400034708102   -1.11401504848202
H           3.56332890653072   -0.68625128845506   -0.16426218391226
H           2.18893691068078   -0.56426184372860   -1.04352734564053
