    26
        -50.44840389  Gyration_radius:  2.55058678654 Dipole_moment: 5.246
 S          -0.29350066798328    1.26945604598131    1.96813697785283
O          -0.58150512022185    1.10439693685853    0.55619794858135
O          -1.41265439956420    1.61751731756676    2.76370627599907
O           0.36450241991762   -0.05602437441269    2.46064203695057
O           0.85979493096568    2.25885320065889    2.14618880130336
H           1.69565892210466    1.79543526811221    1.80665317149431
H          -0.33858362555349   -0.76853653790648    2.32042778041107
O          -0.70831603671516   -2.20039050277066   -0.65964884755771
H          -1.05586383923977   -2.99138459879751   -1.07326262920849
H          -1.19710128545153   -1.42309586626402   -1.07249353265441
O          -1.88176878568815   -0.07316574130083   -1.56159650026329
H          -1.27956500900050    0.21591504479381   -2.28782613592347
H          -1.65905922683835    0.50747154725519   -0.81867802455964
O          -1.52867703435686   -1.61267921402731    1.80353200847113
H          -1.22670464718949   -1.91355638503347    0.91026901285442
H          -2.25374248247032   -0.99862692648349    1.66345848836590
O           2.80251288571668    0.80182044005446    1.33300458968616
H           2.76901782031387    0.12622090728303    2.01620544412520
H           2.43562291386021    0.38409502560161    0.51972778882593
O           1.34581682226550   -0.25174462819931   -0.64308511524164
H           0.62375568963368    0.31255241810906   -0.29336802711454
H           0.97186045237252   -1.14359196799599   -0.63647768931943
N           0.13979459601435    0.68319262813300   -3.21980744965792
H           0.36192394443916    0.24580361422242   -4.10488810350589
H           0.85979756042741    0.42402261423049   -2.54944507107498
H           0.18698319224008    1.68604373432074   -3.34757319884524
