    26
        -50.44834340  Gyration_radius:  2.4658940176 Dipole_moment: 8.508
 S          -0.47944954135787    1.10125910000131   -1.99077900481730
O          -1.33231617082458    1.68925084979446   -0.98145879384018
O          -0.41640158039020    1.74506912594987   -3.24924360740280
O           0.95931409455223    1.00443077194486   -1.36262494385318
O          -0.82803077854152   -0.37749910181065   -2.18292837892597
H          -1.14873815538465   -0.83321710020666   -1.30696555801168
H           0.98998341281825    1.67566978623000   -0.61034102431564
O           0.20067490681263    0.62102861571104    2.40064374865928
H           0.52985012166998    0.62594225204879    3.30065678904069
H           0.49231580498670   -0.21943060137418    1.99565036964346
O          -2.40049734215936    0.63109965307206    1.26396726713072
H          -1.63146162666132    0.76035134224148    1.83692709810485
H          -2.23023600140105    1.15948094661193    0.46517897010987
O          -1.53645042572435   -1.48900946200878   -0.03772310370045
H          -0.72317353545290   -1.65721079383635    0.47257209022261
H          -2.03253423894575   -0.79819661234137    0.47089154619921
O           0.62761494798330    2.61890756256794    0.57553948016900
H           0.53243209728612    2.00364047802201    1.32709709128609
H          -0.26395023300805    2.73105881736296    0.21070933098798
O           0.88046373078451   -1.75881982309486    1.25926985846061
H           1.08502809986386   -2.59754687098594    1.67477100219051
H           1.32341070291353   -1.76513871397879    0.35409321334750
N           1.81034614896538   -1.77133082444456   -1.20191307665646
H           1.14087454290888   -2.25909958402710   -1.78631589665717
H           2.73987814476925   -2.05917383508493   -1.48175255201600
H           1.71105286352182   -0.78151596837292   -1.41592190535627
