    26
        -50.44834352  Gyration_radius:  2.46586996562 Dipole_moment: 8.509
 S          -1.42705943689024   -0.24635983647927   -1.81893732601759
O          -2.25022632548620    0.17044913333485   -0.70515191953784
O          -2.02002961296864   -0.25292132156817   -3.10365209543931
O          -0.16030224802282    0.68591513900224   -1.81520699785937
O          -0.79995689869822   -1.61362490464642   -1.53154060811356
H          -0.59291414412318   -1.75895006711440   -0.52465869643482
H          -0.41557483114474    1.51543983643197   -1.30115537507377
O           2.00434868521799   -0.34174576649928    1.14829779260878
H           2.17276382957539   -0.49157548105891    0.16603578059822
H           2.76310641413298   -0.69175534703094    1.61705033824234
O          -1.05643319601413    2.52474132659578   -0.30242950358431
H          -1.87012457656817    1.99705924740811   -0.29495584925796
H          -0.60169409442494    2.32491167806434    0.53766365339617
O          -1.97335057763723   -0.24631030586923    1.95039863601958
H          -2.32549115643720   -0.09279488290142    1.05671879726535
H          -1.36457910781461    0.48523318189195    2.12545382159195
O           0.21499096367755    1.56168189825414    1.92470646087642
H           0.88567328201267    0.91529147104107    1.62823688334852
H           0.63077201512803    2.10822562563239    2.59314404334834
O          -0.23710345866246   -1.92658068478904    0.90249823727075
H           0.57964026024952   -1.42093055326894    1.06803704332121
H          -0.94927859204189   -1.45517021735525    1.40505241228496
N           2.25208508567809   -0.88703625318884   -1.41365212769010
H           1.51694712925599   -0.28512976068535   -1.77785389293658
H           1.94084931297342   -1.84036256415870   -1.56146268873909
H           3.08294127902896   -0.73770058104542   -1.97263679948581
