    26
        -50.45631663  Gyration_radius:  2.46343611345 Dipole_moment: 4.423
 S          -0.31145233947948   -0.77088994111135    1.58686123204605
O          -1.23202628330551    0.26109401617733    1.15532452111606
O          -0.92071710912633   -1.91552324227342    2.17885944442819
O           0.52601199373577   -1.21777402076230    0.36983242621687
O           0.71170259841706   -0.17318933534732    2.54734566903300
H           1.18146078507796    0.63339913584242    2.08796282211973
H           0.40191493007516   -0.62627408225812   -0.46652987379024
O           1.79305485148137    1.69915225198316    1.26677177477232
H           2.34029469498359    1.21281613032743    0.59044682849339
H           1.08310214631885    2.13776266836968    0.76786554767276
O          -2.06665061438476   -1.12879065643512   -2.12296894731845
H          -2.38090275922460   -1.39301293743750   -1.22847903450039
H          -2.00037149725656   -1.94138590828597   -2.62696323998793
O          -0.47715130473966    2.36348562861816   -0.15112386052900
H          -1.11387049422237    3.07913966306242   -0.13051868037575
H          -0.86114876124585    1.62534803725645    0.38439661005332
O          -2.88162623807493   -1.86443754795007    0.33051828425201
H          -2.20569852050699   -2.09341062390012    0.99205492975110
H          -3.29123286862559   -1.06385442486314    0.66858354482667
O           0.17515942290439    0.19607090578586   -1.69607820323346
H          -0.67038862688174   -0.23191091688678   -1.97927637021645
H          -0.06395668630658    1.07823217916606   -1.36262985601977
N           3.00606351564650    0.22282113094160   -0.60649088323497
H           2.90460912743526   -0.70956764900440   -0.22351669425584
H           3.96092710240550    0.33860222918357   -0.92036150528490
H           2.39289294711419    0.28209729950912   -1.41188648601297
