    26
        -50.44694858  Gyration_radius:  2.54426568389 Dipole_moment: 3.774
 S          -2.28114584385177    0.02474548686964    0.10636383668547
O          -1.35649930209280   -1.08979252329100    0.14591845533201
O          -2.96218943474432    0.29758034408006    1.31904976250555
O          -1.50688923265642    1.27021777053888   -0.39509384104226
O          -3.26828807470326   -0.20003441682260   -1.04748698376193
H          -2.70593133300046   -0.42319061172595   -1.84431933487209
H          -0.87068329538241    1.62348624975746    0.30644407291413
O           0.66463076283415   -0.70805185289947   -1.51333138007641
H          -0.02281575319250   -0.85772917012427   -0.83132753047531
H           1.45598700045463   -1.13448310690679   -1.16228479516150
O          -1.65354750997048   -0.91774883890725   -2.95107958477594
H          -1.72937004903943   -1.87361582631660   -3.00563570609840
H          -0.75025532927018   -0.73563069623630   -2.63164317123973
O           0.24657871470509    2.18201535546385    1.22667571188426
H           1.01853954057141    1.95635684479086    0.62129677125960
H           0.17736651520191    3.13876522018404    1.23234187197172
O           2.06249905114961    1.45171838979677   -0.47089231660807
H           1.48713295008780    1.03514708563159   -1.13237609375651
H           2.51524405708613    0.69083791834717   -0.05917681766510
O           2.68068112843630   -0.99246767035740    0.54897442373007
H           1.92609625793167   -0.93290697673417    1.20180125915590
H           3.43852415654320   -1.31554467927925    1.03658639071333
N           0.61113675815200   -0.68126856797861    2.21131816389990
H          -0.16207657419173   -0.98576523763487    1.62244214383889
H           0.48070719304329    0.31432757334758    2.35637353138648
H           0.50456764593311   -1.13696806370780    3.10906114040724
