    26
        -50.44694865  Gyration_radius:  2.54415909257 Dipole_moment: 3.772
 S          -1.05510086472328   -1.79871964419725    0.93045445303010
O          -1.30731958728623   -1.11291166604929   -0.32044173997907
O          -0.52585008087437   -3.10837036743266    0.81388435293579
O          -0.13606937895961   -0.89666187187987    1.79294086623265
O          -2.34653802255284   -1.79247144718146    1.76017628383586
H          -2.66583862006321   -0.84429934732701    1.75542865436542
H           0.80967453415989   -0.87557340709773    1.43685049423116
O           2.25306667079060   -0.63417702437489    0.92157155482325
H           2.85108579179378   -0.69946134197555    1.66876229024117
H           2.14422066545425    0.34797781201858    0.72950950761318
O          -3.09606988164375    0.68013850125530    1.49538383690086
H          -2.34737409136984    1.15452786382313    1.08857224635407
H          -3.79435970860640    0.66831039261329    0.83609304339485
O          -0.99417858448616    1.49749833866319   -0.05336862534228
H          -0.68275642565032    1.87256720325362   -0.88623966024964
H          -1.04721439137565    0.53311257486084   -0.21845612161703
O           0.98839468567832    1.68352766632863   -2.15880459326878
H           1.02336005154081    0.68521642734880   -2.12311381064842
H           1.42832761544408    1.94324177400817   -2.96842569536741
O           1.71071958174769    1.85635704031356    0.45728473226388
H           1.66815020214497    1.93835479672055   -0.51478647179161
H           0.77635919280170    1.85549762909831    0.72014009780798
N           1.10863874266944   -0.97236775088364   -1.88498819133037
H           1.78108712134614   -1.17573073275937   -1.15306041995026
H           1.26456037427712   -1.63424016788339   -2.63503918721658
H           0.19102440774296   -1.17134326126817   -1.49032790726354
