    26
        -50.46815424  Gyration_radius:  2.47609073819 Dipole_moment: 5.897
 S          -0.85307590334547    0.56838731194124    0.48681764696798
O          -0.82073619188871   -0.81802563062967    0.93381205153255
O          -1.30399871625904    0.64384976000726   -0.90933451684297
O          -1.90040793471848    1.33412887702655    1.32263320728293
O           0.43985100036956    1.22171905883590    0.64138819066888
O          -1.01779780664508   -1.45842183586752   -2.53293828365509
H          -1.28157336680069   -0.76916523472197   -1.88695838088307
H          -1.73238821173483   -2.09648493065043   -2.54895373642113
O           2.34803295465006    0.21643766464502   -0.87140254837496
H           1.83747735289192    0.67162906623400   -0.16523884865670
H           1.49743827470105    0.61864118511719   -1.97838779268443
O          -0.17849815973387   -0.89067273462481    3.50123016116948
H          -0.37163364047072   -0.96267895828763    2.54171102610887
H          -0.84380367272443   -1.41653493366823    3.94799696971306
O          -0.21791113138619    1.76805451956819    3.19520367627977
H          -0.13337345144877    0.85985162885509    3.55561606871041
H           0.42636027147020    1.81265130760665    2.47296861920478
H          -1.38518176077094    1.59195523159165    2.14506372399423
O           0.97451556865339   -2.01506537253897   -0.65980073639959
H           0.37304168815979   -1.70641559714448    0.04475293453377
H           0.41533239019702   -2.06334660405921   -1.45035583073087
H           2.08234833250739   -0.73235895326538   -0.76911555682451
N           0.63409897957342    0.86805796999620   -2.63984276342353
H           0.40997618074812    0.07293502901612   -3.23827896726611
H           0.77871262153199    1.71373088534608   -3.18000187222814
H          -0.17680565752588    0.96714128967429   -1.95858443177797
