    26
        -50.45145028  Gyration_radius:  2.53695241831 Dipole_moment: 0.468
 S           0.12196382997225    1.24080657083691    0.27775479903599
O           0.70739315647955    0.89072427184350   -0.99459185107067
O          -1.29918500622620    1.40868216429657    0.25343502581473
O           0.53761819633781    0.20168567779548    1.32406457102400
O           0.75784659804764    2.52452839737703    0.81657198581532
H           1.70309637500205    2.28250562032376    1.10249466944904
H           0.48011873922103   -0.79207184467788    0.95696285540793
O          -1.96852514404248   -2.23442294212327   -0.46023661034630
H          -1.92526131155921   -1.60120344201811   -1.21855843312087
H          -2.41624343310323   -1.74110927328538    0.25290373943329
O           3.03833321801706    1.62864779947833    1.50266567200262
H           2.77033089164741    0.96141519642635    2.14068764980334
H           3.29514007655614    1.13176694452934    0.68665108874760
O          -2.81045033137851   -0.46442663236026    1.42510836603129
H          -2.25641287617021    0.25183820455830    1.05801607216932
H          -3.69149767426632   -0.09844499590626    1.51891076364016
O           3.27132347881015    0.28791689344190   -0.75610147943266
H           2.31354246937474    0.39409268243546   -0.93857454733395
H           3.73179682958749    0.62499778831587   -1.52664557054260
O           0.38355147229430   -2.13629652427874    0.51112810024471
H           0.36046434097558   -2.70828973989896    1.28196214093884
H          -0.53352138920761   -2.23339871050958    0.06421723151693
N          -1.70528918315935   -0.20780510493952   -2.21650418991022
H          -0.77080729487654    0.09762991476023   -1.95726843203996
H          -2.33421442660483    0.51071267252381   -1.87754735077277
H          -1.76111161179730   -0.22048158898865   -3.22750625651167
