    26
        -50.45376629  Gyration_radius:  2.46000272315 Dipole_moment: 4.214
 S           0.56424002239830   -1.86678152732044    0.35627739441752
O           0.97640598953965   -0.59210303785675   -0.16918651590165
O           1.15323284915690   -2.23365250172565    1.60100016139051
O          -0.97562148856345   -1.87285911283654    0.46826122370538
O           0.84347949725643   -2.96694947383459   -0.69078333137295
H           0.36286230784020   -2.63918790081936   -1.49665943721694
H          -1.38190442207373   -0.93745155394701    0.28423334785578
O          -1.91774131594824    0.40561272640156   -0.03482461351287
H          -1.38734588529250    1.02109684639043    0.51975800876714
H          -1.65212563613108    0.59435231133484   -0.95295416285405
O          -0.36605384988233    2.04376258088724    1.42489118878870
H          -0.80325259838796    2.56132828036227    2.10259720246489
H           0.26476570829182    1.42260653350254    1.90021145690715
O          -0.69921585705291   -1.85292359543365   -2.45680960954587
H          -0.59981529440728   -0.87970422678508   -2.50334655521636
H          -1.55120488030841   -2.01483272779999   -2.04305180821617
O           1.06948231632556    1.94076281649841   -0.98052459327793
H           1.33511768324368    1.04679338893531   -0.70761403846644
H           0.60012539566895    2.28524543205420   -0.20677815728396
O          -0.78909463905913    0.87380239291818   -2.48109009591497
H          -0.90977732831919    1.35198978407815   -3.30238979092027
H          -0.03303254235584    1.31515211606587   -1.99916830913923
N           1.28596809869762    0.43174293467615    2.73449443058474
H           1.21227897952926   -0.49488224262178    2.31508030864340
H           1.15835991741409    0.31792688004624    3.73349458754447
H           2.23986698240751    0.73915285683926    2.58488170775107
