    26
        -50.44870251  Gyration_radius:  2.48803569561 Dipole_moment: 4.006
 S           0.05634978337702    1.48294518853498   -1.29357622641478
O          -0.36110851536392    1.80603894716759    0.05948193325079
O           0.66768682737137    2.53861756278065   -2.01380689537744
O           1.05285526170895    0.26974942191393   -1.17300307213829
O          -1.10152060843778    0.88619050649562   -2.06226863905787
H          -1.37980747655154   -0.03121979392233   -1.59043261935161
H           1.37857471988954    0.18315976123296   -0.23767907696031
O           0.92359068610705    2.11116190879461    2.39158861105727
H           0.18533259134408    1.84872838348363    2.95228313082192
H           0.51625598397289    2.34348875305411    1.53769041425778
O          -1.76292812711071    0.91433406987107    2.15163933702649
H          -1.36262855949365    1.28898925330781    1.34136905902212
H          -2.71103008219119    0.92219054610709    2.01316111007135
O          -1.61119571597317   -1.29528358904439   -1.01337541543942
H          -1.24604511275134   -1.36356182477030   -0.09507722223901
H          -1.01302343611344   -1.85535404948339   -1.56777993946515
O           1.94685277852391   -0.00876399170507    1.26347260635754
H           2.90454938926552    0.02564677104925    1.29201878334464
H           1.61751286258193    0.78629294636482    1.77297182049088
O          -0.52259941458523   -1.39447224400368    1.40793628616424
H          -0.99380797087572   -0.67201379072141    1.86367773264515
H           0.40807823741454   -1.14062647910425    1.40304197006908
N           0.36765569932759   -2.39559903099178   -2.47045397906701
H           0.21912368192910   -2.44803448545784   -3.46982209436343
H           0.87750150518658   -3.22072921142600   -2.18236674942985
H           0.94377501145914   -1.58187549953841   -2.28069085529142
