    26
        -50.45007537  Gyration_radius:  2.50012750483 Dipole_moment: 4.860
 S          -1.26376967189265    1.51516050379171   -1.54365731118262
O          -0.81987242183552    2.16836571613585   -0.32629659100463
O          -1.31038939534452    2.32318111139527   -2.70268348353576
O          -0.31236047033279    0.28961174003012   -1.74606588525729
O          -2.61504527190561    0.83830218455450   -1.31065325062606
H          -2.59847599135286    0.23601950335442   -0.48616378808326
H           0.58898392303423    0.58599670346853   -1.35861114470627
O          -1.14761553518312    1.32105116827676    2.11392933274219
H          -1.53624565991737    1.99881811479305    2.66837075248818
H          -1.02357858694025    1.72522904066695    1.21996852096083
O          -2.44843631726956   -0.63212799372692    0.76587759964928
H          -2.06093913715515   -0.03239741169002    1.43267582757063
H          -1.78640383124302   -1.31888636204584    0.59059036614909
O          -0.15674340915495   -1.92707007592370   -0.09527928317831
H           0.73998789390793   -2.29488393367153   -0.26314348967981
H          -0.31506024087577   -1.34527290171388   -0.85347250243032
O           1.75505480280233    1.11218476532317   -0.55561470665549
H           1.42717452307303    2.00300904424647   -0.39499657886767
H           1.64119707893777    0.62668362720633    0.31251688625515
O           1.10623813782509   -0.19649996935659    1.61854105132598
H           0.63221063569713   -0.92052735589406    1.16386546426000
H           0.42068096296315    0.34548308499294    2.03662342952002
N           2.50434316604157   -2.16858459968628   -0.55220951115029
H           3.00606893399714   -2.89281969406473   -1.05064476856710
H           2.92847006398266   -2.06617645794961    0.36229094477236
H           2.64452581812912   -1.29384957250975   -1.04575789078096
