    26
        -50.46220855  Gyration_radius:  2.42290967151 Dipole_moment: 2.977
 S           0.91233349814990   -0.62702345883775    0.59140043093769
O           2.27497312285970   -1.09997335846229    1.14459090493856
O           0.13125906891742   -1.81909984438532    0.28994966559158
O           0.25952942951094    0.21104209927685    1.58761690942730
O           1.17025663793171    0.14615365696539   -0.63225168883579
O          -0.99159666441988   -2.64510776149421   -1.93583483176303
H          -1.89731475177355   -2.81286295423050   -1.66326606911053
H          -0.47426046503569   -2.54766021697350   -1.10577593739022
O          -2.29742727555629   -0.88800367506416    0.78443186856231
H          -1.42857366371391   -1.32506254811816    0.66483403974353
H          -2.20575562346358   -0.39777433426628    1.60528704345891
O          -0.45678578655359    2.29285281456557    0.12377719388515
H          -0.25728847917555    1.58689984632515    0.77639468859719
H           0.27148710726192    2.24489266451507   -0.50305825435508
O          -2.29784379835007    0.90665471821460   -1.16121875419700
H          -2.47798871127741    0.22720450258832   -0.46400565546117
H          -1.76554198803586    1.60370646581771   -0.69984461522462
O          -0.50550798336075   -0.18961360822448   -2.46835632754513
H           0.26590983469222   -0.05195260501919   -1.79068784649992
H          -0.71427566432913   -1.18649424071666   -2.42677780372546
H          -1.35543928412738    0.31973347967218   -1.98699494829007
N           2.85052003506525    1.32889123723311    1.89177672286987
H           3.06079851727740    1.95368595769330    1.12484754260674
H           3.37326365380496    1.62764195386494    2.70464558453350
H           1.85698933046000    1.38871289156585    2.09528726424171
H           2.69827990323477   -0.24744368250521    1.45323289299671
