    26
        -50.44749916  Gyration_radius:  2.52938659217 Dipole_moment: 1.921
 S          -0.99847513923764    1.51433193196159   -0.34847443329481
O          -0.71244729896493    0.24409053697244   -0.96741056128931
O          -2.22996221090296    1.60478291955119    0.34863246465220
O           0.19414200165300    1.84152171616559    0.61999656666477
O          -0.85792619331006    2.63400596801082   -1.37669177855631
H          -0.08422538624662    2.38722165674752   -1.98535273163985
H           0.22206553174691    1.13816605454987    1.34967458660837
O           0.45459664305439   -0.10721923707716    2.23226305680260
H           1.19044338048001   -0.02661777318349    2.84294214190004
H           0.75554539087139   -0.71769811663864    1.49417185192292
O           2.48466555699550    0.95270357998919   -0.71422126180548
H           1.87621338776671    1.39881994870868   -0.10765298945633
H           2.33414249666925    0.00559953101712   -0.58493691307986
O           1.12274378530324   -1.38811258264727    0.06946090013411
H           0.71436949337241   -2.27621420168693    0.18995934556514
H           0.46268982288515   -0.89065823767164   -0.45348461043632
O           1.19405272027197    2.01640872208908   -2.76243201195832
H           1.76038091129789    1.53348171118459   -2.10843068539486
H           1.68426494079968    2.79914794580428   -3.02466763671113
O          -0.50574029641057   -3.45827997068072    0.45058243750920
H          -0.86119242021284   -3.85085024673184   -0.34808880658937
H          -1.17972364500990   -2.79804989279357    0.75690522112656
N          -2.14654471339056   -1.40108587180625    1.06645091472298
H          -1.95389936805135   -0.77637303045568    0.28875974439267
H          -1.76774865544008   -0.94976958565119    1.89169921787958
H          -3.15243074626638   -1.42935347564306    1.18034597047504
