    26
        -50.46065076  Gyration_radius:  2.56671075365 Dipole_moment: 6.100
 S           0.86900122003497    1.32136045475009   -0.45671132939826
O           1.56828203779216    0.37126648865249    0.44296740645734
O           1.33569625731949    1.20790019256825   -1.80909670133279
O          -0.57236290979684    1.12516873479446   -0.31219178080440
O           1.21761161460532    2.74364828605498    0.06680156474213
H           0.60233274740980    2.86134235045252    0.83170081437715
H          -1.67899147459769   -0.17300053844221   -0.25422809055538
O          -1.21753054714113   -2.36437441075517   -2.24567748554504
H          -1.90942647701123   -2.59665417694615   -2.86732649056058
H          -0.69917790859055   -1.64633517538179   -2.68287958151821
O          -2.00496404171014   -1.07898140124878   -0.06590069893024
H          -1.82930727302394   -1.59016561922649   -0.89293422108809
H          -0.87190052087709   -1.46566309201959    0.77477687162545
O           0.07668255658233   -0.39296501136275   -3.45713988123065
H           0.46671575158338    0.25750063006116   -2.82849111116836
H           0.77650783326732   -0.58332484949348   -4.08456399541201
O           1.06095321701115    0.55031117515010    3.01390952025178
H           1.76252862695851    0.93914054038655    3.53802411018720
H           1.37739515836694    0.55786502602772    2.07945688936571
O          -0.57430730967326    2.50230728795978    1.94390242390666
H          -0.95947341413537    1.98963818212470    1.21148486627213
H          -0.17668098115408    1.85050696583908    2.54653942563270
N           0.10692891301998   -1.60308038018082    1.27522257460156
H           0.75259822646995   -0.87308558590636    0.82878430430549
H           0.46871828384974   -2.54062653716594    1.13770519284955
H           0.05217044341094   -1.36969953672675    2.26586539294750
