    26
        -50.45002651  Gyration_radius:  2.51471870423 Dipole_moment: 6.070
 S           1.04642091554458    0.55860734325247   -2.28577949870868
O           1.95886567203091    0.67459420399059   -1.17239252144045
O           1.61225185532196    0.30121260140610   -3.55754513394565
O          -0.02583994695243   -0.50720212042267   -1.92133288288840
O           0.18559346459865    1.84417818339119   -2.35118751459077
H          -0.14273635720291    1.97488482143613   -1.42154409415894
H           0.29297768530723   -1.18206223027001   -1.21416063163015
O          -0.81266484069788    2.01489852013042    0.04234757876092
H          -1.29736860079712    2.83229374263382    0.17114998575936
H          -1.50453046966800    1.27307429034610   -0.07693533491230
O           0.63436421307391   -2.10856055667436   -0.07566951374622
H          -0.10121259397221   -2.00699691866150    0.56578879792990
H           1.41131589666488   -1.71407117942748    0.36092611251319
O           0.31945112229224    0.63620053251905    2.19180336684943
H           0.05212729425863    1.23378668466935    1.47485435191951
H           1.19379158326551    0.29708770127685    1.94045480545043
O          -1.18603530977773   -1.49107459002008    1.83496779641894
H          -1.20309041068223   -2.01487256782219    2.63679951756978
H          -0.67386405007795   -0.66518183361545    2.05161358513456
O           2.55912951743951   -0.52156613146940    1.04795624100419
H           3.50924590908407   -0.58185386123231    1.15478584206526
H           2.40663506590688   -0.00861416939336    0.21883663013543
N          -2.45711397283567    0.03299753582178   -0.34650918440144
H          -3.45052161459605    0.11132836400212   -0.51947611199864
H          -2.31322130681928   -0.61922725951962    0.41917849662764
H          -2.01397071064486   -0.36386110632439   -1.16893067579365
