    26
        -50.44694862  Gyration_radius:  2.54378802731 Dipole_moment: 3.767
 S          -2.22964367242720    0.00630718886908    0.48701140211170
O          -1.30492053001810   -1.10229927885274    0.36585829214760
O          -2.69736786323692    0.27191449668776    1.79834978301253
O          -1.55902019926475    1.25805251887593   -0.13377480299460
O          -3.39614759996371   -0.22240115184200   -0.48419130208788
H          -2.97467954986453   -0.44100538919148   -1.36487973570917
H          -0.81753232629166    1.61578042447606    0.45281889312737
O           0.40711631965215   -0.69987229227575   -1.60691539423938
H          -0.15501723160366   -0.85681563187379   -0.81989919593735
H           1.24931548188483   -1.12082352144928   -1.39531491630097
O          -2.11943286896553   -0.92801046526312   -2.63308288035257
H          -2.19504406237372   -1.88463185971282   -2.67222732944864
H          -1.17687177984588   -0.73733120324950   -2.47098936422384
O           0.43338031895667    2.18205704073522    1.17457695913308
H           1.09441006794799    1.96358918396524    0.44739689297825
H           0.35875403262776    3.13819698564120    1.19479728276711
O           1.94340376573660    1.46903674289311   -0.80603173039172
H           1.26840643636735    1.04934082642568   -1.36314851748787
H           2.46390696004317    0.71066486546276   -0.47816080668289
O           2.74226428627643   -0.97102043886485    0.08944655728752
H           2.10668762105085   -0.91914383766849    0.85911481754916
H           3.57393448920523   -1.28685580620523    0.44306016751094
N           0.97662170192983   -0.68030045317623    2.07477023761272
H           0.11819816461533   -0.98988520410903    1.62233926194452
H           0.86471880745139    0.31394990826124    2.24277839425975
H           1.02455924011050   -1.13849364854551    2.97629704440408
