    26
        -50.44725690  Gyration_radius:  2.47028618611 Dipole_moment: 5.240
 S          -0.87582218589371    1.95962094949571   -0.59407590280450
O          -1.15126689503743    0.82226860658386    0.26399520125591
O          -1.54838842655912    3.15752069629978   -0.24365298513295
O           0.67954923530703    2.17175058845562   -0.56130271813844
O          -1.11193836253186    1.58324581534742   -2.04485325194698
H          -0.53348087063236    0.72941589643338   -2.19057992435584
H           1.02766581392080    1.95795053796377    0.33756577589881
O           0.27808604174082   -0.48752539840431   -2.21160763408536
H           0.89697204094459   -0.48752839475327   -1.46107187575404
H          -0.35778752500107   -1.24097494225804   -2.04567842639675
O          -0.50542293297969    0.46386611878240    2.86155687192017
H          -1.06005109119730    0.78263940244602    2.12926892195816
H          -0.45044244838428   -0.49252105215511    2.71167655035255
O          -0.32217614527790   -1.65935733541170    1.01566252133515
H          -0.71311013349295   -0.83521677871401    0.67404769678512
H           0.59769213600542   -1.63307867122859    0.72814553919140
O           2.09077395568221   -0.60698130155308   -0.06720869519034
H           2.04720603568278    0.10643976315788    0.58909541525979
H           2.95720779932062   -0.55656681825292   -0.47459888731260
O           1.64213482288428    1.43821552304602    1.77643630415403
H           1.98394260903727    2.16114558691891    2.30530165641635
H           0.85460322612736    1.06510761685097    2.27795676346708
N          -1.43382273166623   -2.43322354249045   -1.56519470741937
H          -2.38326089681742   -2.09522906994320   -1.65427055175599
H          -1.22482812965827   -2.51863719377838   -0.57215244069993
H          -1.38403495155813   -3.35234658285139   -1.98446122704743
