    26
        -50.47297972  Gyration_radius:  2.503996556 Dipole_moment: 2.738
 S           0.23369639353902    1.02212298031786    0.32909897427333
O           0.17827073808307    0.02734211340566    1.39945383108579
O           0.56986854029343    2.39333387480480    0.94998567276608
O           1.27456469166608    0.67471723864889   -0.64558434861856
O          -1.05775056778143    1.17194748513447   -0.32403738038176
O          -3.03824045248200   -0.53717452151806    0.05182205180135
H          -2.34119500965071    0.15601357254004   -0.00515854234611
H          -3.56755545312232   -0.31746522924535    0.81944770413675
O          -2.01807289608421    0.18479596817886   -2.63221485275473
H          -2.79951188505528   -0.21131092865399   -2.23141157074303
H          -1.69609057006008    0.81784759882778   -1.96197542105411
O          -0.87662496838709   -2.15419371707495    0.31793853227083
H          -1.80168641700032   -1.85034847335472    0.25017387795646
H          -0.44473847206073   -1.46425641486848    0.86691755985854
O           2.78747906601184   -0.41745347959324    1.29814092094068
H           2.72984334763969   -0.12290043593869    0.37821400905377
H           1.85002808611378   -0.50895963571914    1.55239089050770
O           2.72202810641168    1.99861559745313    2.34531656015182
H           1.42281469543109    2.30864034843418    1.46213919484257
H           2.47871125687669    1.90525445957151    3.26874652376710
H           2.95153154603925    1.09037343739620    2.02223684556782
N           0.10242633490487   -1.25766904813935   -1.93249553119959
H           0.68684937699696   -0.46941300278815   -1.52203262716535
H          -0.72039965448048   -0.80111939828010   -2.40831490139299
H           0.64167474436636   -1.83952127168139   -2.56401276344769
H          -0.26792057821676   -1.79921911785680   -1.08478520986953
