    26
        -50.45286231  Gyration_radius:  2.45050474697 Dipole_moment: 5.120
 S          -0.09402206929437    1.70694471303786   -1.12011216388795
O          -1.04010601899981    0.63144746655587   -0.94933521789183
O          -0.64935269472987    3.01282660820360   -1.19386021155395
O           0.92969297463922    1.64796472286680    0.05676761366814
O           0.79730597331572    1.39900078602162   -2.32684322796011
H           1.10431093721887    0.43665218640183   -2.22719674762238
H           0.45938066986159    2.16189342352061    0.81722826413745
O          -1.82769743991374    0.52773939063222    1.63225344083610
H          -1.75711903476713    0.51223679440379    0.66186260299910
H          -1.28959083115182   -0.22518659686779    1.92653941063767
O          -0.55801837118367    2.81707966381693    1.69187075189048
H          -1.13689349595948    2.02503036192467    1.86114048824828
H          -1.00997296685493    3.36101848168362    1.03718278024908
O          -0.23262437960781   -1.77024012922045    1.77719525125667
H          -0.31148563997419   -2.55115801423434    2.32617968453467
H          -0.55824324505797   -2.01940053497188    0.86113019380135
O           1.65436468593693   -0.98473015949907   -1.94441613961722
H           2.52342066377423   -1.03891601908310   -2.34831435152522
H           1.80774055621944   -1.00780317771443   -0.95334637112975
O           2.04524560764414   -0.81602042825375    0.62704482254898
H           1.88597390576031    0.13761457793867    0.64808586709569
H           1.30787572054249   -1.20684077586964    1.13619957504989
N          -0.95856942803012   -2.23245960278514   -0.72818476165245
H          -1.09909935354352   -1.24665060462196   -0.94654983647056
H          -1.79548369928877   -2.72983363131640   -1.00550992981671
H          -0.19703303653610   -2.54820950261560   -1.31701180785562
