    26
        -50.44646991  Gyration_radius:  2.48291528352 Dipole_moment: 5.853
 S          -2.17028953748334   -0.13184163559511    0.95916271607204
O          -1.77147231409829    1.06035271695343    0.25254430320971
O          -3.54718362360127   -0.32974282605425    1.21435902803745
O          -1.61442441212267   -1.36093856596091    0.15473583373828
O          -1.36229106746580   -0.22441231279839    2.26968004048326
H          -0.52093702646884    0.31786946556871    2.09967892766402
H          -1.15772027279810   -1.08018833940315   -0.68981162956051
O           0.65983704824253    1.15408407378515    1.59425164012994
H           0.20457399428972    1.82755517852687    1.07688821752745
H           1.14885109986632    0.60342675844021    0.94306846722807
O           1.75622568335550   -0.46458301954139   -0.29070498248745
H           1.64988355397324   -1.21299268838358    0.34682757093483
H           1.12365109156177   -0.65693327981951   -0.99867774483317
O          -0.39577635561216   -0.73420871543452   -2.04577564288909
H          -0.54572157489650    0.26094875868285   -2.17031184106628
H          -0.81475028297404   -1.17082760135191   -2.78897924391945
O           1.73742845688971    2.22142521938570   -1.08522149331667
H           1.96613134666323    1.31175619370009   -0.83779351970338
H           2.52692902684654    2.61850488518942   -1.45380165724323
O          -0.76725260505678    1.80293493050107   -2.12474687463598
H          -1.30810502424226    1.77669750599163   -1.31648380478450
H           0.10181270703043    2.14182292539188   -1.84249313583460
N           0.93392852198704   -2.29349231050595    1.50528892783819
H          -0.04084724159797   -2.29387131121981    1.21882416670760
H           0.96877771042941   -1.88712649989764    2.43269297909696
H           1.23874110728958   -3.25621952615225    1.57679874161350
