    26
        -50.45286234  Gyration_radius:  2.45046800084 Dipole_moment: 5.118
 S          -0.29989848286782    1.94308847687246   -0.55838307950649
O          -0.16350142173624    0.74131997785220   -1.34450363123939
O          -1.26502052109047    2.87798503847197   -1.02060138341452
O          -0.64270671871133    1.53093167267478    0.90771797647355
O           1.07959739078803    2.58639576204091   -0.38886005933054
H           1.71713732824148    1.84578407925943   -0.11462230660593
H          -1.66639020769687    1.40551096997057    0.89449411440373
O           0.91160567092870   -0.44709975771382    2.05266478426257
H           0.49249878666116   -1.23019392103789    1.64422585962762
H           0.25818481270261    0.26046808513021    1.96537302294882
O          -3.07992448840998    1.18552942902450    0.46724267962595
H          -2.96018098876383    0.30801909680394    0.01252577008738
H          -3.14711934319553    1.85356378475490   -0.22415708891259
O          -2.19098336077634   -0.94701899872581   -0.76543832402915
H          -1.48977564236889   -0.41592985463396   -1.18139819922514
H          -1.71620408253259   -1.56389067623047   -0.18495220149741
O           2.60659822348274    0.70417927961385    0.44149526633167
H           3.27616014539896    1.11023101351403    0.99659629575693
H           2.00743634539760    0.19103631846402    1.06100342974734
O          -0.24603963071708   -2.43562595650779    0.59426872282980
H          -0.18267776503520   -3.37647552517251    0.76245745269605
H           0.39367653750355   -2.22530914585373   -0.14997021214658
N           1.44018272093712   -1.64226986362085   -1.28846006885713
H           1.58054459350190   -2.11189211813027   -2.17413764531538
H           2.34843178372964   -1.37348231237374   -0.92906330240224
H           0.93836830463122   -0.77485485445516   -1.47551788230948
