    26
        -50.44646994  Gyration_radius:  2.48295150917 Dipole_moment: 5.853
 S           0.35011746571345    1.46991506274078   -1.83431981030556
O          -0.65337235856518    1.78390503001269   -0.84734951875890
O           0.77845730917907    2.49929805035235   -2.70438458576943
O           1.59423816784830    0.89187411590766   -1.06961333766245
O          -0.11768211638874    0.24282399421673   -2.64317972815761
H          -0.76774414147555   -0.24292258022551   -2.03305071978846
H           1.46581510690302    0.90995264969555   -0.07774594592298
O           1.35056825192641    0.87960882211894    1.51119429740285
H           2.06248583467712    1.38166896059250    1.91074181526310
H           0.49258143354359    1.38239181170786    1.70964812481473
O          -1.67502309228769   -0.79870752276251   -0.92982141194914
H          -1.09065953439968   -1.15453013084208   -0.22391281840201
H          -2.05297813397811    0.01210819054913   -0.57172254211483
O          -2.16236879941233   -0.36334801163620    2.07929993293678
H          -2.60850136861166   -0.77590798808771    2.81927783777841
H          -1.43672899490994   -0.95296057655520    1.82074707202155
O          -0.90640835307226    2.06151220602588    1.81167999283699
H          -1.50062447879299    1.31333709296115    2.00390665345785
H          -0.98562838842940    2.21365000156386    0.85404048680835
O           0.11259885894100   -1.56089520562039    0.96727857877200
H           0.65487607208497   -1.95638210445726    0.24107046580747
H           0.63605653819556   -0.80762270039742    1.27865170113356
N           1.49913616849297   -2.13128441423705   -1.26848923383483
H           2.30601960958235   -2.73767834487991   -1.34651476247974
H           1.80368646945471   -1.17937501320223   -1.45112841547775
H           0.85108248375846   -2.38043140554097   -2.00630412842877
