    26
        -50.45542912  Gyration_radius:  2.49964471661 Dipole_moment: 5.063
 S          -1.03733426656960    1.64494104972032    0.82535418130622
O          -0.61832686481019    0.29402083012409    1.14505565423555
O          -0.72208572057102    2.63026077819060    1.80274867784883
O          -0.44777748177638    2.04259631508582   -0.52777435206894
O          -2.56126616474416    1.63635776375876    0.59366831661730
H          -2.76240453932421    0.99069775233364   -0.14056637305066
H           0.03862014525690    1.25407182985308   -1.04554692548362
O           1.90209115353989    2.57575463468374    1.09500408300486
H           1.04607260502675    2.69411713861622    1.53801528634301
H           1.85648813558219    3.10732332129126    0.29734122705132
O           0.73852063123239    0.13532253852023   -1.59742620972753
H           1.41195765736887   -0.00088293840310   -0.88593776467397
H           0.10309487653978   -0.60519066252982   -1.48388992740472
O          -0.91875573068927   -1.72187941909085   -0.57304604004547
H          -0.17379029029154   -2.35943106704472   -0.44026223684035
H          -0.87389031074300   -1.13174465312642    0.20367447303331
O           2.01994257311732   -0.11261069643331    0.71515354413423
H           1.12604764494955   -0.11664301089308    1.10069595827118
H           2.33190744175324    0.79273400883867    0.89196586827061
O          -3.00160399859375   -0.15323485132460   -1.24212417373260
H          -3.84109503625193   -0.59665403606610   -1.10215157263947
H          -2.30714911358947   -0.83419774532635   -1.15799111671393
N           1.41424543251878   -2.98070911851452   -0.07552612130447
H           1.90455291108747   -2.16387637784727    0.27863255471198
H           1.93977775165527   -3.33483973301711   -0.86510702463274
H           1.43216057835235   -3.68630365143430    0.65004004349537
