    26
        -50.47273120  Gyration_radius:  2.43962340969 Dipole_moment: 2.888
 S          -0.60892321807224   -0.34353535446693   -0.65313795530497
O          -1.67190368312411    0.40504440675753   -1.49916178355493
O           0.22784766792600    0.66112930246264   -0.00302374139460
O          -1.35567056577372   -1.13479204860385    0.32184756809315
O           0.19237124346721   -1.19029147191299   -1.52692313633702
O           2.15712542680488   -1.49378409292117    0.23338610882470
H           2.56914404497435   -0.62947325978105    0.15393748797931
H           1.48603403188474   -1.51783563545654   -0.48301637428609
O           0.07296161560812    1.07290382274002    2.62437394951716
H          -0.89987123097694    1.13923261733607    2.64811259130243
H           0.27261345710515    1.15619632243613    1.67015541696130
O          -2.49702745598673    0.79120448961940    1.78977203855018
H          -2.20794497765905    0.04215033368836    1.23390650750389
H          -2.96065731014868    1.39035614526230    1.20283990200856
O           1.37575868353482    0.24671920683464   -3.40974434767305
H           1.16640027532688   -0.13333619900692   -4.26451279391234
H           0.99772772221869   -0.36379637221784   -2.74017023693795
O          -0.00452220010454    2.20980036948138   -2.21339929606741
H           0.35788104149562    2.06620657529563   -1.32662639284688
H           0.57468304231173    1.69047245172917   -2.81022105129022
H          -1.17319331321627    1.17991833781096   -1.90090628218801
N           0.39643005869174   -1.47820298200210    2.22815318685685
H           1.24012685477839   -1.56938452768124    1.60371897050693
H           0.34906822013221   -0.47346091681877    2.60792190803699
H          -0.41891544288603   -1.53489977943320    1.56194930227512
H           0.36245598162458   -2.18854176118291    2.95076844339524
