    26
        -50.45542906  Gyration_radius:  2.49976568006 Dipole_moment: 5.065
 S           1.60193819344033   -0.88261345235333    1.05832184350382
O           1.06545921476346   -0.75238721450220   -0.28255177770072
O           2.98767726939296   -0.58776469543478    1.19390705367968
O           0.78526123136232   -0.00741297387013    2.00899748798480
O           1.34465184648148   -2.32268823614286    1.54430834155903
H           0.36200737250900   -2.49447841018150    1.50888073607414
H          -0.08082103365650    0.42590281388173    1.57471391537844
O          -1.52906531103834   -1.07364131098948   -0.80253669899867
H          -1.77367188577830   -0.47801542951168   -1.55381516358653
H          -0.55255879091040   -1.06936345606280   -0.79753273445464
O           2.50289870211202    2.07480268086965    0.93771272892281
H           2.18434783829998    2.25899085152602    1.82409441232326
H           2.89045211963088    1.18528706424243    0.97796506096939
O          -1.21485763506114   -2.72006249405534    1.30367899063845
H          -1.52526820850974   -2.17266510873128    0.55730956165439
H          -1.40654607880041   -3.63216909562856    1.07513194467961
O          -1.16285199913350    1.01855287992391    0.85065364050019
H          -1.54319236225013    0.26040428521306    0.35501145167801
H          -0.64727063420062    1.52564874409631    0.17594971569517
O           0.59080698566594    1.81790059142845   -0.97654889708896
H           0.85803790646396    0.88199182226615   -0.99145295116544
H           1.28859785175257    2.23760270807146   -0.44260414497697
N          -1.78879690543409    0.89821901482249   -2.62453938510092
H          -1.63293850350814    0.67331574680607   -3.59915407030250
H          -0.99456389193443    1.44631122261405   -2.30543838229182
H          -2.60973328165943    1.48833146171644   -2.57046270958563
