    26
        -50.44547077  Gyration_radius:  2.46761264288 Dipole_moment: 5.726
 S          -0.93354867199490    0.20967224889146   -2.03280927857651
O          -1.96157867151238    0.15459117026199   -1.01795706203932
O          -0.91465511422871    1.37587597247967   -2.84227265633380
O           0.44697581464019    0.04592134296306   -1.33012750186858
O          -0.98371145892733   -1.07639505446624   -2.87525949086595
H          -1.02890054833159   -1.79941741055336   -2.18149771025954
H           0.69139308065762    0.94755236169945   -0.93122891443370
O          -1.21283251043381   -2.39905631422938   -0.68302462347495
H          -0.42286110913922   -2.26946870404169   -0.12490874229457
H          -1.78199181391635   -1.63795392515711   -0.49206305867119
O          -1.39722587987286    1.95815990476300    0.92292397607741
H          -1.24011187424130    1.31885266963752    1.64696799891055
H          -1.81585393247903    1.42997444895408    0.22124475966917
O          -1.06194165451740   -0.23398482430252    2.49442912440027
H          -1.90090647936303   -0.69419545620987    2.43485419000530
H          -0.40792613518733   -0.78657355500903    2.02594871609850
O           0.79414928912479    2.37257914956679   -0.36593832346355
H          -0.01817840541368    2.33614270741263    0.22962506664382
H           0.54283366596841    2.92195660626632   -1.11318172520290
O           0.75611929038121   -1.77421540474223    1.14096912341128
H           1.42797330321602   -1.07631396710844    0.90200200782031
H           1.22717323905473   -2.45453816961626    1.62520719293437
N           2.63422206578551    0.08052173245475    0.67228601914481
H           2.89606263735133   -0.04379477763507   -0.29803051157106
H           3.47998826891745    0.10711997282104    1.22884178977093
H           2.18533357446109    0.98698726488640    0.74299960415478
