    26
        -50.44552970  Gyration_radius:  2.49713878537 Dipole_moment: 5.171
 S          -0.20085091378051   -1.85422403409030   -1.59895797483201
O           0.81018350771265   -1.96934670068952   -0.57305118642748
O          -0.67639461882062   -3.05566334777244   -2.17560806626891
O          -1.37672341511848   -1.04343071874663   -0.95200380761754
O           0.27855451905873   -0.89735021703502   -2.70366123486329
H           0.55052078087514   -0.03823330317229   -2.25683945309965
H          -1.21753168883652   -1.11609208122960    0.05090356535110
O          -0.99761732659212    2.32259201316090    0.17805814698933
H          -1.31019012367676    3.21631949591739    0.03197237578259
H          -1.80086724174839    1.75386642371103    0.27425516714328
O           0.55155619538355    0.91149123200129    1.96874179535101
H           1.37676709570549    0.70789517821954    1.49434403615465
H           0.08302247476159    1.58282660950427    1.44795792723453
O          -3.05089995436272    0.65602413735096    0.45674703020022
H          -2.90611129955576    0.08729776479986   -0.30978398466762
H          -2.86644915592478    0.10985949901030    1.22744286891954
O           0.93917256880349    1.20160880233536   -1.38225523012560
H           1.56042345319181    0.89207204481333   -0.70634132924509
H           0.19177727193547    1.61573242186250   -0.90970118858357
O          -0.86770090483262   -1.25015385165374    1.52610668563060
H          -0.19378084790501   -1.92564657966833    1.39442626275760
H          -0.36644623061758   -0.42974763053092    1.79697681437966
N           2.70798042494980   -0.13433981774870    0.47300616330518
H           2.16879520875492   -0.92566567990477    0.11075874373200
H           3.15526657927798   -0.45525028763992    1.32542551456436
H           3.45754363135913    0.03755862719320   -0.18891964176827
