    26
        -50.45901900  Gyration_radius:  2.46758884818 Dipole_moment: 3.266
 S          -1.02993181907375    0.85581843372951   -0.30506017393548
O          -1.42846657694194    0.06080432134313   -1.45545661208717
O          -1.22904626283153    0.14566090739715    0.95121953234998
O           0.37400861399041    1.27905758512713   -0.43466325867025
O          -1.89386580386138    2.13871269200694   -0.24430067600882
H          -1.70879648948779    2.55009828762346   -1.13427771895175
H           1.32251740316029    0.20057937588389   -0.52412988396742
O           0.45107547744326    0.55858165175458    2.90308078682113
H          -0.07589147098357    0.42363656797807    3.69325056544401
H          -0.19000045333536    0.54931385274252    2.15198477847360
O          -0.59595316378777   -2.47427542289721    1.10189588293976
H          -0.99603256001320   -1.58356817251930    1.12842167671484
H           0.23876260330129   -2.40393817130558    1.57978994272940
O           0.03354844902958   -2.09878812579131   -1.41840698229148
H          -0.27527234819232   -2.49092944472002   -0.56060488199790
H          -0.60659056953624   -1.36260772881355   -1.59334958422733
O           1.87059776475978   -0.69671809761748   -0.55759726106540
H           1.96863069515399   -0.98754129140958    0.40141127760505
H           1.13451480822362   -1.39650166074725   -1.02046525264230
O           1.93779832529503   -1.37127763777475    1.96335028790985
H           2.80111435343203   -1.36590197732654    2.37986695730542
H           1.41975752462567   -0.62315297933420    2.37208328471765
N          -1.02906172011616    2.61506875030405   -2.64550171056735
H          -1.20409367963280    1.62751696868601   -2.80480424193335
H          -0.04270959669274    2.71661438706148   -2.44078851888788
H          -1.24661351380736    3.13373693862856   -3.48694820594290
