    26
        -50.45018999  Gyration_radius:  2.49755791308 Dipole_moment: 5.274
 S          -0.50315485508803    1.35255047235757   -1.94033477841185
O          -1.02057049172114    2.04200737478438   -0.77958898708663
O          -0.33833195031709    2.10718771148876   -3.12451577820408
O           0.84360477036767    0.68746147827024   -1.50906535799963
O          -1.37679661494717    0.11925021380164   -2.24414377071625
H          -1.57248319583181   -0.39988612531256   -1.40687808962736
H           1.17394745193029    1.21636779315796   -0.70343420158133
O           0.34345458390491    0.41014933386491    2.41382726495824
H          -0.59365865077631    0.61666468450603    2.12918085214264
H           0.37963575818451    0.55947564985317    3.35930001279219
O          -2.02431825195950    0.94297421586630    1.45259324616738
H          -2.30655420102240    0.10257106341233    1.06528567789118
H          -1.78650150913736    1.49493294322424    0.68366100597544
O          -1.89783854130898   -1.30220388877744   -0.15699668937046
H          -2.34615220922250   -2.09628179973501   -0.45241217384620
H          -1.04471652684643   -1.61127680580492    0.30159259198937
O           1.33617757425911    2.07681832224492    0.54542757686799
H           0.52158037939699    2.56722620044082    0.36478447052616
H           1.12515151419680    1.47643111538289    1.29385751367948
O           0.26450659941991   -1.99693105517106    1.03109307855711
H           0.44276800693228   -1.23433927189734    1.60559044663511
H           0.99745648698484   -2.01757398606328    0.36735681220213
N           2.18302131395677   -1.85249048655371   -0.86679919618178
H           3.12227254203991   -1.65870964944967   -0.54282033831981
H           1.83705303210647   -1.01483757555527   -1.32643929084616
H           2.24044699448681   -2.58753791832595   -1.56012190819178
