    26
        -50.45669789  Gyration_radius:  2.43087013609 Dipole_moment: 4.014
 S           0.56930444538173    0.23978580040123    1.51769670333744
O           1.16812634624596    0.45829160187278    0.21183964325845
O           0.26382261668577    1.45094226015997    2.21028083292895
O          -0.67309780860106   -0.63771800434996    1.34332572579869
O           1.48689461806336   -0.64208580936007    2.35497843368225
H           1.57234905672328   -1.49713487759983    1.80777470505887
H          -1.33645016933256   -0.23307080189903    0.61170285063251
O          -2.08517679738933    0.37250490054348   -0.42602521492889
H          -1.49258636022247    0.29332513107231   -1.20686392555336
H          -2.02824261547120    1.32502760284697   -0.13984938033841
O          -0.03192122205852    0.18952407846179   -2.14815806592282
H           0.53178208660586    0.19893504690656   -1.34806067389394
H           0.14091039152929    1.02720963462677   -2.58627972167235
O           1.48811081295467   -2.76461080527109    0.96553807738423
H           0.83253986125248   -2.66711534291542    0.20849468937327
H           1.13516011130509   -3.44959463414878    1.53795529384112
O          -1.40293994011343    2.72972360648347    0.46442171249830
H          -0.69430655453684    2.99867307256442   -0.14822222892662
H          -0.94109049802926    2.44803840665907    1.27118851794399
O           0.95963471999886    2.88970877579563   -0.91750949349133
H           1.57248320846783    3.52990550832345   -0.55299026761684
H           1.16068476566492    2.03919751558113   -0.48090513900245
N          -0.34527458351090   -2.61585061719027   -0.95884807771564
H          -0.12384546481402   -1.87664129402022   -1.61672079239406
H          -1.19960713404358   -2.34897418223122   -0.48386224206652
H          -0.52726388262654   -3.45799657337695   -1.49090198232989
