    26
        -50.44633153  Gyration_radius:  2.57615222706 Dipole_moment: 2.876
 S           0.63698496728436    0.88725173476447   -1.70558655624317
O           0.09324905648657   -0.39463281919181   -1.30903032673238
O           0.87486567359697    1.06223745953602   -3.08879963553924
O          -0.28627291754394    1.98965707610572   -1.11425125599323
O           1.93562749092705    1.14182681382845   -0.91468588405918
H           1.66937864254479    1.33281283330136    0.04704390690877
H          -1.24800494357571    1.77054734631643   -1.34325603070343
O           0.99416653960825   -2.22330198268442    2.13639720661258
H           1.52824095486209   -2.20793582590549    1.30054940712895
H           1.56643992764181   -1.88624936891741    2.82758346848678
O          -3.23462725873505   -0.24841414365360    0.45588663713398
H          -2.35698656223138   -0.28434446308916    0.89259071327516
H          -3.40717512367320   -1.13622904207892    0.13641769366705
O          -2.72811713280333    1.41109413987572   -1.53754078776691
H          -3.29862438731587    2.17445230830008   -1.42372374687347
H          -2.96317882064282    0.77504871856183   -0.81121322261836
O           1.02162567152883    1.63498211324900    1.41538416257930
H           0.52336130868481    2.43783079387954    1.24364459924185
H           0.35113885726393    0.90393930862557    1.48606955226142
O          -0.65678613940994   -0.37159814061128    1.20550802640166
H          -0.42924534401146   -0.45978583097558    0.25216273867710
H          -0.18950391049049   -1.12363641743401    1.64438600483490
N           2.32410252552580   -1.87292151146148   -0.18917001978725
H           1.54432495352034   -1.50742550574255   -0.73288687405906
H           2.70590583712730   -2.66024970416520   -0.69877872318434
H           3.02911010382559   -1.14495589054560   -0.17470105377889
