    26
        -50.45321926  Gyration_radius:  2.52085347973 Dipole_moment: 3.796
 S          -0.33842350827544    0.86440686745088    0.43803833313414
O          -0.54203586484766   -0.33136492441931   -0.34626720562468
O          -0.15282888414415    0.61941654323494    1.83871184720326
O           0.87431034360108    1.60754678628156   -0.15638327367844
O          -1.47595434579263    1.84945987129672    0.24605525536362
H          -1.35743949196026    2.29667144764114   -0.68126877965568
H           1.58818563212255    0.87669378496178   -0.33805397928339
O           2.38294894059109   -0.35858158766898   -0.50412029393305
H           2.43086364867770   -0.68200803997465    0.44826671554327
H           1.81565978266441   -0.99255560468155   -0.95297445885059
O          -1.47013208371331   -1.44213763972141    3.07524482955904
H          -1.10510409772608   -0.62915913878536    2.68764785323075
H          -1.24659158592269   -1.42170632404955    4.00755786043412
O          -0.03466639706434   -2.65185266695614    1.06287054126565
H          -0.63994214480956   -2.54822855197073    1.81626201617306
H          -0.31587632470085   -1.96755885008783    0.43696355266656
O          -0.94416642271857    2.80619795717338   -2.01383535726792
H          -0.91979154622925    1.95846723793544   -2.55450852873184
H          -0.02968333292314    3.06591122609092   -1.86863507591916
O           1.98455756027924   -1.13669080659638    1.92330005750168
H           1.38301803343877   -1.88702742548361    1.70341209575595
H           1.38945243377644   -0.42297925102586    2.19268902749490
N          -0.82035523665598    0.40237339228487   -3.08922471434287
H          -1.65931876992910    0.07822191783133   -3.55302401411450
H          -0.77060474320074   -0.05528534463858   -2.17889668083329
H          -0.02608159434088    0.10176913384759   -3.63982761312496
