    26
        -50.46898419  Gyration_radius:  2.47156204699 Dipole_moment: 3.724
 S           0.44647872653247    1.27626260216854   -0.33862199070167
O           0.33488634374161    0.67981933366935    0.99768190566943
O           1.80871606357785    1.54931851274199   -0.71073925738708
O          -0.22237218612601    0.38409220271401   -1.31032500976510
O          -0.31233343125574    2.62048604133563   -0.33776786673427
H          -1.20312957207406    2.47926958758060    0.08588921151753
H           0.10058055792500   -1.07263434367660   -0.95011541771929
O          -1.45329400666949   -1.16909343226582    1.44077207951447
H          -1.70147151012306   -1.17305794912296    2.36584999517666
H          -0.80954448022221   -0.41910675486984    1.33739366680986
O          -2.77844597744206   -0.04414685189877   -0.69363312783795
H          -2.57865938268461   -0.60943235126521    0.06972326574675
H          -1.90661606333180    0.12998845149465   -1.10512326945574
O          -2.71969473740569    2.25560427161600    0.55623618840096
H          -2.90329425152603    1.39409372630137    0.09399282997093
H          -3.27076860748503    2.91648908090425    0.13293900018252
O           3.61707668259376   -0.31142309482216   -1.01854744501757
H           2.95418622732170    0.41808726641088   -1.03416367700576
H           4.47221181290682    0.11873320504400   -0.96829869000108
O           2.22005105416114   -1.23409375178787    1.04360338438888
H           2.90148154037707   -0.96140160333813    0.38874999035050
H           1.69883274100951   -0.42878098390240    1.23448781301984
N           0.27682254857427   -2.01370429857254   -0.46836087680457
H          -0.50894220156506   -2.15458652142088    0.18131062519072
H           1.16230288806838   -1.85902060816485    0.14123168645097
H           0.37493921111890   -2.77176171686429   -1.13416500396769
