    26
        -50.46135648  Gyration_radius:  2.48834023641 Dipole_moment: 3.159
 S           0.38427782229161    0.95373053678954    0.00913209736829
O           0.88802657465380   -0.10887614913985   -0.85337518164121
O          -0.84716739588154    1.51436667747632   -0.53434038901774
O           0.15905573653954    0.43790105610909    1.37278310215990
O           1.41959843832300    2.07921810370641    0.09384500761562
H           2.05487770871062    1.77280960511173    0.82375244542804
H          -0.97492608109643   -0.45474332899578    1.43571111909087
O          -1.06033929939134   -1.84004030385614   -0.99220363963562
H          -1.63643228151857   -1.34305490001593   -1.60942317331040
H          -0.21410487598796   -1.32876825499354   -0.99860065273212
O          -3.25729192179264    0.84870364239740    0.35378238197757
H          -3.63559818373739    0.60732686162428   -0.49889371595322
H          -2.43879055683800    1.34472346838369    0.13635913600861
O          -1.82221285531446   -1.04916295142857    1.24883015327120
H          -2.54163662145471   -0.35633182397897    0.99957917462043
H          -1.55988052245803   -1.52894532754838    0.33397654651926
O          -2.25366942634388    0.16476153804942   -2.32362790394198
H          -2.02317470916907    0.35695115156096   -3.23333924902815
H          -1.68141210462219    0.74117038352081   -1.76786699713713
O           2.75560669379854    0.99486654679034    1.95507824313898
H           1.91616718985408    0.66730870613768    2.30396310101566
H           3.14373939247224    0.23476744940880    1.44461788269611
N           3.33458622188888   -1.01216600584671    0.29374846539767
H           3.26689646073158   -1.98139266135302    0.57791671118133
H           4.12831502357714   -0.92894561324704   -0.32872187859071
H           2.49548958279090   -0.78617839662431   -0.24268279650144
