    26
        -50.45018977  Gyration_radius:  2.49764436641 Dipole_moment: 5.277
 S          -0.37138799489001    1.88388277298118   -1.47129972930181
O          -1.06056209118494    2.15435040748716   -0.22939967501083
O          -0.12470690369943    2.97993254416854   -2.32964962923307
O           0.95930017619432    1.15304705047617   -1.10079030552776
O          -1.12183234734663    0.78786669740941   -2.25360963735037
H          -1.37485903898714    0.02420050791912   -1.65228581336686
H           1.16110981875558    1.40707763705542   -0.13507343554637
O           0.03931735813405   -0.36844388517977    2.44443467403528
H          -0.04171039707575   -0.52549568502772    3.38587717319268
H          -0.87120518319892   -0.10812655973322    2.12042102956926
O          -2.23471458171880    0.37621141582264    1.40100678851907
H          -2.41428175831786   -0.30514006036957    0.73808428492134
H          -1.94885442188146    1.15014181362012    0.87967896092561
O          -1.77687062025661   -1.23709010314124   -0.79811492724691
H          -2.13489543094627   -1.90872325050159   -1.38084131916549
H          -0.96200314398055   -1.65158787431357   -0.35332839149396
O           1.12451069876319    1.83031230233501    1.32988979909105
H           0.30492505607903    2.33057937463521    1.20846781449107
H           0.87048022418096    1.01813547260121    1.82078878869548
O           0.27907110759043   -2.21224904001534    0.38181592959105
H           1.08282566780970   -2.00030488898488   -0.15409054932699
H           0.33892760984467   -1.66754419672715    1.18373698397038
N           2.38927724360906   -1.41836038926216   -1.10836935380112
H           2.04059056275632   -0.48972731208073   -1.32893901868028
H           2.57966186045641   -1.89547699191312   -1.98038933953033
H           3.26788654931152   -1.30746775926766   -0.61802110242672
