    26
        -50.45887723  Gyration_radius:  2.49035603451 Dipole_moment: 6.040
 S           0.60233859760535   -0.43977949914780    1.21045679452542
O          -0.28185414304660    0.72642417638916    1.22253257743682
O           0.20959593475449   -1.36243243693638    2.27146625078060
O           0.60906357430516   -1.07835861786883   -0.10174280706748
O           2.03995780195719    0.07681192790501    1.49260558666169
H           2.64798407985292   -0.37146544421108    0.82357357121403
H          -0.94999930023345   -1.52683139404559   -0.52404064014640
O           2.70441456843600    1.65252476611507   -1.11048322734376
H           2.85653835412092    1.89454665163448   -0.19356382777211
H           1.74278085366438    1.71713976110223   -1.24786608548947
O          -0.04724493688175    1.95840990352228   -1.00684903393490
H          -0.12441556611639    1.46557140318411   -0.14043343051472
H          -0.28149939407803    2.86854295601099   -0.81247621065652
O          -2.09918382623794    0.61275036514311   -2.17401712616205
H          -1.83428373632747    0.37137682559926   -3.06337768625580
H          -1.34892212113118    1.11694578168737   -1.79485518247512
O           3.22913613853343   -0.95071109744977   -0.52931578398035
H           2.34321764323675   -1.30713353089623   -0.70877677350504
H           3.26051497111748   -0.09364156823031   -0.99796380762395
O          -1.92993846497817   -1.56053787414289   -0.61397350864771
H          -2.28829296167552   -1.27018237054136    0.80116821524198
H          -2.14394096505856   -0.79608039233165   -1.19646010235437
N          -2.28710141806492   -0.99931938638152    1.86644724818134
H          -1.28258905828737   -1.25786108378174    2.18379978242525
H          -3.01082744816446   -1.46242045715257    2.40604294550036
H          -2.33544917732323    0.01571062477812    1.93810225195411
