    26
        -50.44924661  Gyration_radius:  2.52442217869 Dipole_moment: 6.193
 S          -1.89263674639202    0.41507749446639   -1.72461180621520
O          -1.80346800341691    1.51925624631621   -0.79605629287285
O          -2.40358321298990    0.69961519092382   -3.01120121662050
O          -0.46356792819518   -0.22094303069905   -1.80651972366014
O          -2.70164613326393   -0.73196920246287   -1.09069667766029
H          -2.27757233476539   -1.01923598702291   -0.22630888974591
H           0.18321955767141    0.54952353780112   -1.65383974796786
O           1.45247002399883    1.60223975407417    1.35963161749564
H           0.51006315311600    1.37705988994602    1.59504769091289
H           1.66181109067476    2.40239661427748    1.84368684775230
O          -1.07722026277106    1.06508796197497    1.74564115122721
H          -1.23744858141945    0.11141644774074    1.77259441896598
H          -1.44992078568527    1.35842238811705    0.89184743203207
O          -1.52578466804158   -1.58239235951300    1.04643826516923
H          -1.99451983691932   -2.35348103002369    1.37113935912797
H          -0.68333930642715   -1.92850782558103    0.59809505441573
O           0.83501791146774    1.87812696357157   -1.24474987546551
H           1.19367608838832    1.77721630478892   -0.33285864812976
H          -0.02372388976120    2.31072995739067   -1.13565962509879
O           0.52416864045340   -2.35188680327825   -0.28218113433853
H           0.29243073965164   -1.88930381219677   -1.09726102968642
H           1.34881802372162   -1.89970011812345    0.04465490706574
N           2.67801984850146   -0.94303371522164    0.46927172075862
H           2.33072083652206   -0.08204258980556    0.88333106838715
H           3.21406844799957   -0.68993488811022   -0.35148390092471
H           3.30994733788909   -1.37373738936052    1.13204905507332
