    26
        -50.45284958  Gyration_radius:  2.52180972625 Dipole_moment: 4.932
 S          -2.26297293596092    0.46127862570372    0.17241222421589
O          -1.32296304091967   -0.01065753448579   -0.83262828634030
O          -3.41139643833959   -0.34977133655998    0.36213023927385
O          -1.53217554359131    0.61488026117375    1.50525596885736
O          -2.68850389638644    1.89302629649017   -0.22242719495567
H          -1.87344637952693    2.41810069560781   -0.45495289106761
H          -0.49103054832739    0.77397850318425    1.45421859266592
O           0.94703828498154    0.82393564219113    1.35777405511836
H           1.16235180630316   -0.12278452287257    1.49895799577089
H           1.12774882618198    0.99952968426424    0.40376741708790
O          -0.51236998921505    3.15045456505853   -0.93659661492757
H          -0.65847570919320    3.58894013650005   -1.77760965516501
H           0.20478613495602    2.50687671066806   -1.07975456493155
O           1.12694035238341   -1.86252411629206    1.58177857187837
H           1.13440122056871   -2.19492888614696    2.48084312122880
H           0.24149607147069   -2.08772746829259    1.21535939130038
O           1.08842025165837    0.96748910147665   -1.29891246208033
H           1.73087983814895    0.21785806944186   -1.36012664156326
H           0.21137707753571    0.53539713163696   -1.31279981190554
O          -1.30244314385693   -2.30382671889065    0.52878995374396
H          -2.16668603427833   -2.17042722535551    0.92941467757471
H          -1.26488010130407   -1.63959496175262   -0.17880094146774
N           2.52889061870697   -1.30322098196531   -1.07086684362253
H           2.19192262427037   -1.62653189424938   -0.16840240250693
H           3.54043169866120   -1.28975330015381   -1.03606569603732
H           2.25065898504359   -1.98999646637432   -1.76075821214272
