    26
        -50.44349467  Gyration_radius:  2.68141176738 Dipole_moment: 7.334
 S          -1.10414215661933    0.36679113566087   -2.19371920201935
O          -0.75441830093737    1.51896273699059   -1.39384180197406
O          -0.19639709774949    0.06855896880965   -3.24499370562418
O          -1.26605563773867   -0.86949457939031   -1.25932919087235
O          -2.54333241610451    0.52374527258410   -2.69231708143920
H          -3.08931163664078    0.52522488225387   -1.83907080601567
H          -0.43368433226798   -1.42310854942198   -1.11182959765491
O           0.99771025725439   -0.35594445657779    1.15931351854306
H           1.64890863723791   -0.23625739203290    1.88468203566644
H           1.33877290064727    0.19445652194491    0.42155835871911
O          -1.52023511003778    0.95701239170415    1.10224829725816
H          -1.21325797027416    1.41872236792506    0.30360384502452
H          -0.78826896803692    0.36010415253311    1.32300230358017
O          -3.64879224566626    0.29690698342285   -0.38943949530463
H          -2.95180506023831    0.57316671436663    0.25517023910749
H          -3.71150392085228   -0.65768028835620   -0.30683732924230
O           1.81151690423676    0.89302112711657   -1.09249770008619
H           0.96748180841233    1.35529787736877   -1.23907135677431
H           1.92914732436543    0.34053359304730   -1.86963881093526
O           0.72762412373304   -2.30929443002453   -0.55536743344262
H           0.93209582425368   -1.68199678443755    0.18621074050331
H           0.34763722869094   -3.09529999416082   -0.15816542690708
N           2.93363786156198    0.21082864421540    3.01903457873779
H           2.55074828160526    0.80903491988040    3.74066054594039
H           3.59534755444343    0.75716827317690    2.48080036354215
H           3.44057614670409   -0.54046008861450    3.46983409165791
