    26
        -50.44462512  Gyration_radius:  2.69464407839 Dipole_moment: 6.409
 S          -1.95524203370103    1.30580892144798    1.12588268341839
O          -0.81135362397488    1.79778245274074    0.37934290247557
O          -2.94706943826785    2.27704067592506    1.40934294043275
O          -2.55003921972250    0.10316437498429    0.33434443803963
O          -1.46232310496476    0.61455977157888    2.39675045926850
H          -0.99221646679776   -0.22541089487724    2.06926261930041
H          -2.73919296427556    0.36362981126520   -0.62771181399808
O          -0.19232084829214    1.00048401984233   -2.11448594029139
H          -0.31401216589411    1.44763214856049   -1.25693204830401
H           0.30867178759711    0.20145727862788   -1.89572481107726
O          -0.48751110958286   -1.46875924695520    1.31250868880893
H          -1.29338859112270   -1.70250982551376    0.84267018325375
H           0.17400920937236   -1.21475731389908    0.61050539968938
O          -2.80663737381932    0.81993324679927   -2.09654129755402
H          -3.11125637828471    1.72867387876328   -2.14448240534663
H          -1.83421657165821    0.83540755260564   -2.30454679620369
O           1.83525025943935    1.55415556116480    0.68124764397559
H           2.20220326320962    2.28149950349681    0.17518586045568
H           0.87472562802193    1.72321486542900    0.73439940298611
O           1.26782792425015   -0.78923463825273   -0.52801799542379
H           1.96644205836470   -1.46485067038179   -0.38467321365186
H           1.60394807862006    0.02952655791267   -0.10522362105801
N           3.14897971711906   -2.63001428912824    0.22480741019504
H           3.38314660299263   -3.39405945549111   -0.39635995848628
H           2.72220876477914   -3.02027561601451    1.05639525884608
H           4.00936658349285   -2.17409867173546    0.50205404229857
