    26
        -50.45476176  Gyration_radius:  2.47637529846 Dipole_moment: 2.168
 S          -0.72432633014194    1.44999754839236   -0.70050236139790
O           0.11297118605205    1.49102834574935    0.48265020519894
O          -0.25277713777580    2.17278667880865   -1.82543780303661
O          -0.92979757689879   -0.02143994658701   -1.08759938332810
O          -2.12989645994654    1.95714532418481   -0.32776559269477
H          -2.50251896592911    1.40662556387746    0.42116091771952
H          -0.93179955979593   -0.65749920288153   -0.26555210746130
O           2.26799719108870   -0.09961037592847   -0.18707397515174
H           2.22391072953535   -0.01003622003677   -1.16710045106702
H           1.63075353217510    0.54803704469058    0.14626348400438
O          -2.90767577599239    0.38940527456759    1.57935585297431
H          -2.24659921061782    0.48575487394711    2.28296242924396
H          -2.83340981842580   -0.52002459450587    1.26838019938444
O           1.43817489539936   -2.54299725804337    0.32574530568505
H           1.57847794418766   -3.02381304690347   -0.49065496790586
H           1.85163143678441   -1.64905080993402    0.19249706025764
O          -0.90030181388655   -1.55434386850970    0.90735529386745
H          -0.08034029290701   -2.08100041936738    0.70584983694265
H          -0.66162386865510   -1.02360921806550    1.69161488608286
O          -0.43683858898018    0.37702515940383    2.78243453166076
H          -0.15689684288806    0.90975765811950    2.00365365989651
H           0.26172020673421    0.45519843894416    3.43405813550701
N           1.70968224635917    0.28996235263899   -2.81385349344316
H           1.18312169432809   -0.43981667431984   -3.27820347616015
H           2.38373679940482    0.65181286052699   -3.47760899105105
H           1.05262440019667    1.03870451101429   -2.60262919546806
