    26
        -50.45088670  Gyration_radius:  2.51042382216 Dipole_moment: 6.659
 S          -0.53701171473197   -1.97294053186318    1.51421269138202
O           0.26696802634443   -1.62957013288336    0.34352129157688
O          -0.21551600557314   -3.20941583475535    2.12318185733046
O          -0.46396705314171   -0.81547161038891    2.50628731959763
O          -2.01806260865482   -1.99136464876394    1.06956772583113
H          -2.20575790282602   -1.16150428262016    0.55072013700023
H           0.17622053662505   -0.02043430035158    2.24262217609402
O           1.02389558550794    1.06802807806072    1.84246881325121
H           0.44287982027238    1.58813824888115    1.20509477898225
H           1.73177782511638    0.68990072115469    1.29732385752409
O          -0.60452526848418   -0.75756547490058   -2.04061730623997
H          -0.24180431722136   -1.26628155005706   -1.29198610640487
H           0.04060428236999   -0.04376952301140   -2.18974774825148
O           1.44190687924330    1.10199750566316   -2.04415242687954
H           1.91197933220608    0.65024942772426   -1.31785454047554
H           2.06054807315970    1.17140132039907   -2.77270199328926
O           2.52413667242948   -0.37482654448561    0.00641544707906
H           3.26498759207874   -0.97317757619265    0.11342626733182
H           1.70865144332251   -0.92055735882198    0.11897661062787
O          -2.52143386995679    0.03902110764374   -0.48674951338303
H          -3.38289988381852   -0.15728360671738   -0.85981673884558
H          -1.84523150511081   -0.22067867293232   -1.18116820726051
N          -0.48971377065285    2.22720338996983    0.02199669969413
H          -0.75317127648374    3.19959593715762    0.10695137138676
H          -1.33614948057681    1.67082245720317   -0.03148245738491
H           0.02068858855990    2.10848346488181   -0.84649000627727
