    26
        -50.45122986  Gyration_radius:  2.47852057704 Dipole_moment: 5.275
 S           1.74927590932824   -1.05733862961752   -1.33201620651239
O           0.65639982331907   -1.92235204516895   -0.94912102856301
O           2.51812200197010   -1.44803391173280   -2.45427086897475
O           1.19168963720084    0.38102396255640   -1.51339533067739
O           2.66882781424649   -0.87114665915886   -0.10353668842299
H           2.05513460928971   -0.82098003479643    0.68426291788122
H           0.18370462344462    0.42866470471199   -1.71833360626970
O          -1.50287112667501   -0.61295253170016    1.51204933023863
H          -1.77614971798178   -1.15145686194684    0.75311677472271
H          -1.66456489789780    0.30957645530616    1.25472049750225
O          -1.54906476022897    1.95460735647454    0.49812397973990
H          -0.56582500348520    2.07302117193943    0.67380189308066
H          -1.96996120280656    2.79738447612729    0.66918216635508
O          -1.93730952231344   -1.88590135077450   -0.91584111153728
H          -2.31234529303706   -2.67873993754533   -1.30125425056267
H          -0.95734722880634   -2.00049912381837   -0.93848712966330
O           1.07974409645931   -0.77110224264069    1.93331323915392
H           0.09820165806340   -0.72371744424971    1.74876585441350
H           1.21146327951150   -1.59037852811000    2.41392129928274
O          -1.30479219845470    0.59503048243468   -1.83497108005061
H          -1.69298935709688   -0.27453129972220   -1.62516013390293
H          -1.50320915470765    1.16664366808468   -1.06536732717788
N           1.06141503770503    2.08275467297264    0.89645833890040
H           1.39094706291645    1.72096849772235    0.00562810228636
H           1.28011689590634    1.38194969557265    1.59643380057998
H           1.59138702413043    2.91750546707985    1.11197654817799
