    26
        -50.45018993  Gyration_radius:  2.49738400981 Dipole_moment: 5.271
 S          -0.90274674480595    0.95343118643014   -2.02816966446159
O          -2.00440122383183    0.74435775090501   -1.11546516154872
O          -1.21706832105737    1.14517264167176   -3.39321315865251
O          -0.03878158493356    2.13227150239688   -1.53780733556317
O           0.07385139266969   -0.25236525034964   -1.84350956602627
H          -0.48447941438761   -1.01055334103200   -1.45454839589009
H           0.13923163283714    2.06531463127715   -0.55152164743046
O           1.62280973972994   -0.20717091279301    1.56509996424315
H           0.86037341690977   -0.79072016333184    1.71207134102338
H           2.07996900935013   -0.55049936634908    0.75800682955102
O          -1.95613715545159    0.91210852777370    1.56169686405118
H          -2.16739929071240    0.90781636572810    0.60891050866192
H          -1.21003288230581    1.52312392728808    1.63817496614964
O          -1.51347718663747   -1.89005588669601   -0.75164369683755
H          -2.20418708316371   -1.21634659368189   -0.82699399771978
H          -1.24152695488323   -1.88825363111490    0.19236771306798
O           0.50771786039451    2.02515376642961    0.97972395200685
H           1.12861373195672    2.73003786595716    1.17058152354407
H           0.98140808285518    1.15715083453689    1.21613982225951
O          -0.85276657329649   -1.43954558884224    1.82035951762382
H          -1.21055592605666   -1.91357155505227    2.57194394086374
H          -1.30957877302118   -0.54913684534118    1.80250606957586
N           2.68326321128043   -1.07868112099702   -0.76271342238773
H           1.91744473532642   -0.78577065884579   -1.36302955646947
H           2.78777987940775   -2.08027388329290   -0.86515101338948
H           3.53067642185136   -0.64299419259686   -1.10381640631706
