    26
        -50.44534766  Gyration_radius:  2.53184489748 Dipole_moment: 5.414
 S           1.57639494120518   -1.45901791832595    0.50497453319611
O           0.85791581443710   -1.36206008920597   -0.75066217528140
O           2.98803577516781   -1.49626148128850    0.41753102217321
O           1.10242316504808   -0.26323791853824    1.39247252877194
O           1.05488950855257   -2.66171468675136    1.29345114316487
H           0.04236661718256   -2.62908229773548    1.40060487095373
H           1.56861092404902    0.54956530409764    1.03487198838342
O           2.12344439114008    1.87739894957604    0.42118667336847
H           2.28330438747818    2.56164660557483    1.07421232423836
H           1.43406179653446    2.22065661484060   -0.20089066924021
O          -0.04779373546492    0.44109518129434   -2.55429556496234
H          -0.94570878044435    0.09520526626638   -2.52203524589346
H           0.48735746123039   -0.19543279961950   -2.04739411687783
O          -1.49040009010698   -2.65484037170145    1.46297324302212
H          -1.79098389310795   -3.54843928696010    1.28595243088934
H          -1.76311829455829   -2.09911145004941    0.67344171429620
O          -1.81160012892827   -1.15374184492575   -0.62793900916741
H          -0.85790246939120   -1.28741843496197   -0.78978872853710
H          -1.86924485572377   -0.26889997873998   -0.18998598752503
O           0.22615245324771    2.70537061774178   -1.23958088786870
H           0.09759739010590    1.86927359889349   -1.76205307773433
H           0.51059005436219    3.36484487456620   -1.87483326885520
N          -1.54645098377545    1.15458455594551    0.74175316472275
H          -0.81020877053808    0.78965937765371    1.33666935526298
H          -2.26742930093284    1.54525630732310    1.33382580092125
H          -1.15230338682628    1.90470128503407    0.18553791847753
