    26
        -50.44837942  Gyration_radius:  2.48952471322 Dipole_moment: 5.215
 S          -0.40522198543632    0.68805823996941   -2.15972894779520
O          -0.90061252167213    1.68522820401760   -1.22025537308048
O          -0.15123040767332    1.15394250236311   -3.47131595100504
O           0.89375574614011    0.09069426272407   -1.52052806350882
O          -1.33690583476633   -0.50986168706176   -2.18624112158139
H          -1.58199035630129   -0.84376623900308   -1.22031998783986
H           1.29324438117474    0.82191633700452   -0.95488507088318
O           0.36169574243045    1.01241277752470    2.21946395555627
H          -0.56223147045574    1.13854549763409    1.92265308712864
H           0.37830815783966    1.17496582165700    3.16373595800310
O          -2.07229299810290    1.37067434227296    1.06973929162776
H          -1.67485510593211    1.52848246561178    0.17545402399231
H          -2.78334821069334    2.00609785817068    1.16432226452007
O          -1.91497071433597   -1.22562787924324    0.13636613022670
H          -1.10523988215305   -1.53612835068413    0.63417743508218
H          -2.19763910692984   -0.41624068438990    0.59027017438521
O           1.48948605085991    2.07635099833280   -0.03562192206256
H           0.67226852054509    2.46353505176958   -0.38227938477126
H           1.27132657147012    1.74740374822265    0.85618492510858
O           0.26674246053995   -1.72804744011388    1.48033137331178
H           0.94687880463202   -2.04718579809762    0.84299527397347
H           0.52976664392314   -0.83532767141187    1.74434639827501
N           2.02075615509624   -2.43480226958268   -0.47117980845175
H           1.76681494860017   -3.29296324816312   -0.94377229277688
H           3.02618578299281   -2.42809613681394   -0.35591447248464
H           1.76930862819309   -1.66026072272135   -1.07799788494810
