    26
        -50.44737007  Gyration_radius:  2.55586334518 Dipole_moment: 4.471
 S          -0.41621574834308    2.33396975976294    0.03641117968849
O          -0.55890424706661    1.06663593568108   -0.66030489534218
O          -1.45357070378002    3.27058013330147   -0.17962490272683
O          -0.22946897477863    2.00647495313919    1.55005837064104
O           0.94723569155105    2.92680706712582   -0.31301978989393
H           1.63314994289007    2.28434695741754    0.09251166418326
H          -1.01189677038042    1.48391577675106    1.90273500165872
O           2.46556426088089    1.27306604203146    0.84054486953095
H           2.16126795486096    1.35381573761452    1.74774156613670
H           2.29094264054164    0.32457876237269    0.57034901388803
O          -2.05004123416437    0.41707285287523    2.44473186478612
H          -1.86091734367574    0.16986495394510    3.35254501590996
H          -1.76593803538760   -0.33827830664043    1.87949132957451
O          -0.86030818131217   -1.18544444215110    0.71192876093933
H          -1.09390783670440   -1.87262243783883    0.04331593868792
H          -0.80417661418226   -0.36216419505374    0.18439061547842
O           0.84227286587670   -0.49037747946687   -2.34179853373680
H           1.35437219909230    0.06326738700798   -2.93328663877654
H           0.27352649271532    0.11481620997400   -1.82625070434618
O           1.82016860803560   -1.16573357784392    0.15813615272556
H           1.65838032158605   -1.09976110461405   -0.79837115100970
H           0.93709081185745   -1.31397235930196    0.54664171864989
N          -1.09855910762408   -2.72591208294178   -1.49494062316189
H          -0.45634837113077   -2.14108699512123   -2.02213510921433
H          -1.98609285810122   -2.72234505095005   -1.98151701548373
H          -0.73762574318511   -3.67151452706438   -1.51028369876206
