    26
        -50.47273121  Gyration_radius:  2.43952674607 Dipole_moment: 2.884
 S          -0.00337186136404   -0.31143143410601   -0.90468082922277
O           0.06938044575924   -1.76325671042168   -1.44619143111228
O           0.97189521775736    0.51305827254673   -1.60599719476579
O          -1.36879137571976    0.14328775712799   -1.15599473846498
O           0.29418744299212   -0.35609543929311    0.52413878535809
O          -2.76250341398183   -1.49554719841787    0.43716204234863
H          -2.33309240409804   -0.94502434071497   -0.24558424667400
H          -2.51330543952564   -2.39980705038797    0.24058144135095
O           3.41894811987778   -0.45091077453642   -1.29940779535853
H           3.81557773653317   -0.56502193319103   -2.16463659193568
H           2.55560396485608   -0.00890044401708   -1.45166130588469
O          -1.61551833994035    0.07865428579766    2.33022748904457
H          -2.25753409204861   -0.53794767834633    1.93111754082301
H          -0.77703883996016   -0.16726590554766    1.89006594675544
O           0.92857071041797    2.45659398700368    0.20315262588086
H           0.99893980128216    1.85127959137631   -0.56672161814838
H           1.44305691891262    2.03314646924320    0.89528233223814
O           2.07059161389835   -2.34310342261831    0.03931134051844
H           0.85417903073544   -2.17083270158436   -0.96823930186918
H           2.77033343095852   -1.80485567547397   -0.38738046082159
H           1.63816573970585   -1.74125820447137    0.66304217477298
N          -1.66613833603629    2.03698748037420    0.61795741815242
H          -1.73378245424901    1.38634917673952   -0.20907584728863
H          -2.36314946484075    2.77292379866622    0.59594497315090
H          -1.75494835832715    1.38372527048639    1.46739410354855
H          -0.68025578364026    2.40525281396069    0.57019316761313
