    26
        -50.45476130  Gyration_radius:  2.47613062149 Dipole_moment: 2.185
 S          -0.03124122192882   -1.46324942186317   -0.99019733093212
O          -1.15172368351629   -0.54543136674653   -0.92070356935661
O           0.55916919973652   -1.63375613208969   -2.26791416715807
O           1.03535395762421   -0.98866721036156    0.00699909841677
O          -0.48378341786119   -2.83514733785381   -0.45640473577710
H          -0.83743728508379   -2.73785387629788    0.47528515610212
H           0.62783435583699   -0.51822742071425    0.83973162191401
O           0.81904606842214    2.53913435502429    1.23658394499105
H           0.46991022185480    2.42283697462662    0.31331347548962
H           1.74976916339568    2.74511222546511    1.14377412023871
O           0.03866566919007    0.17501430714718    2.00237738789345
H          -0.92158793203516    0.26531214905084    1.84911733460577
H           0.39834324727432    1.09259182529411    1.86486667278521
O          -2.56806425681522   -0.02357526685540    1.21310964269127
H          -2.17169776668294   -0.19732518599995    0.32910230281055
H          -3.23052900810801    0.65776873662412    1.08785064498374
O           0.02008356585150    1.93854092710664   -1.19692107088556
H           0.83541756652252    1.66877220900392   -1.67940002023327
H          -0.53006763664383    1.14242075668198   -1.18261304665886
O          -1.31828931647491   -2.35893524571585    1.94723425085570
H          -2.03361570752967   -1.71054289816015    1.85188365710310
H          -0.61306550952057   -1.90774180035942    2.42506545956994
N           2.16983988118129    0.76756694472241   -2.36805031436514
H           1.67703313571050   -0.11692650667058   -2.47588308328679
H           2.96669989232443    0.58778572609749   -1.76961354832657
H           2.52393681731906    1.03452250301147   -3.27859389337891
