    26
        -50.44837942  Gyration_radius:  2.48963348239 Dipole_moment: 5.220
 S          -0.39988525814071    1.59904367617253   -1.60904498529726
O          -0.94835101392988    2.03310369216554   -0.33108119224196
O          -0.14405980758559    2.62659557510038   -2.54740998376543
O           0.91151526246301    0.80960137041056   -1.27779427848319
O          -1.28335086275243    0.52473041308486   -2.21643583188367
H          -1.52932054843478   -0.22591649959209   -1.52313857198019
H           1.27322113051982    1.20588203849498   -0.42563268983169
O           0.28564441506550   -0.12263415714325    2.44602621181403
H          -0.63770795434005    0.10124318857748    2.21164847885126
H           0.28093615256896   -0.41610439241973    3.35827511350684
O          -2.14210327697306    0.66008379078476    1.51436368625809
H          -2.87948214389836    1.15891639162154    1.86897181631511
H          -1.73730906386289    1.22555217097602    0.80796641982537
O          -1.86709950004248   -1.20237498440492   -0.50855333790528
H          -2.18857990709875   -0.70388713043740    0.25905191171990
H          -1.05336761953273   -1.68536904985497   -0.18530674255685
O           1.40577201708676    1.89600416737747    0.97583741692457
H           1.18709698242986    1.18532650962441    1.60684206475604
H           0.57928233195186    2.37667476676746    0.82154416128028
O           0.31158596485333   -2.20912779336908    0.52010254600128
H           0.53388242910473   -1.53381390751779    1.17614876208410
H           1.01471561779562   -2.17689190504140   -0.16922469165436
N           2.12677548788469   -1.87991737101558   -1.47523392198784
H           1.85226600076045   -0.92075684175539   -1.66490705188495
H           1.91919911634961   -2.42968840584235   -2.29917921256310
H           3.12872403775348   -1.89627530276716   -1.33383608729763
