    26
        -50.45018973  Gyration_radius:  2.49716767611 Dipole_moment: 5.270
 S          -1.06764925182567    0.20232325236337   -2.15652485483911
O          -1.99834870003026    0.68565533868273   -1.16135404773184
O          -1.58917224720776   -0.12603274423568   -3.42888923730230
O           0.08227985043993    1.21478485791078   -2.32722092641957
O          -0.32289184643331   -1.01814393556767   -1.52575278078312
H          -0.93317699398464   -1.37183778280178   -0.79072515423297
H           0.42421421013857    1.52824882074136   -1.43621902901912
O          -0.75607075267516   -0.27097491406437    2.33905224783468
H          -1.05004261249170   -0.27638434375823    3.25070168180538
H          -1.03032953771737    0.61276125996973    1.95745944715525
O          -1.42060824052831    1.94772865678431    1.13467085888147
H          -1.80279439795287    1.59604867640616    0.30840805060277
H          -0.57100106636684    2.32296942632980    0.86397461517960
O          -1.96161620025200   -1.57864678346507    0.31651704186766
H          -1.52222676386869   -1.24865582547661    1.13086058670633
H          -2.51188692994314   -0.84783793680015    0.00053846796659
O           1.05664721023819    2.04710662709228   -0.09005016101888
H           1.39243494271739    1.27098216018380    0.47449058717273
H           1.82476186711993    2.58390489896364   -0.29168800037845
O           1.81647834889905    0.06729966922563    1.34920843796447
H           0.99806002040242   -0.18660263466549    1.80656387221591
H           2.04169711712746   -0.68657073783862    0.74988117200032
N           2.24165858913969   -1.93648481110154   -0.41337248688704
H           3.07591277324005   -1.90834398102087   -0.98573233487974
H           1.44424541973091   -1.74303544619467   -1.01292585219756
H           2.13942519209665   -2.88026180762103   -0.06187218167577
