    26
        -50.45559931  Gyration_radius:  2.41533475208 Dipole_moment: 6.516
 S          -1.44583853214802   -0.02223101863437   -1.12234534720884
O          -1.21324365815129    0.55785872991110    0.18751524743878
O          -2.07896316874083    0.85456818465291   -2.04880178376113
O          -0.09082341749496   -0.52362491526482   -1.66371999169230
O          -2.24591941135596   -1.31245492999566   -0.96954072322227
H          -1.76976140843795   -1.91536462706461   -0.28105767465009
H           0.65334805269482    0.20394962411226   -1.46887553034183
O          -0.95549862403700   -2.65190118199436    0.74841173771537
H          -0.87407805420932   -2.07877069210577    1.52716013078449
H          -0.03959738527107   -2.72217637917016    0.38395017960743
O           2.00976639948607   -0.10472225509706    1.40013344761674
H           2.70492930541478   -0.17802650917780    2.05574055749324
H           1.15786108666598   -0.22869144841261    1.86616055304201
O           1.57894879736623    1.20297894131890   -1.03760596544057
H           1.77799118482476    0.94243996857123   -0.12374245167772
H           0.95522361296450    1.98680638085939   -1.01204554950536
O           1.49664940144900   -2.33241985726254   -0.23813228944076
H           1.18915911257194   -1.95000210999951   -1.06846020325347
H           1.83620332314825   -1.58589077401617    0.28265434969988
O          -0.47190523982646   -0.48446185509006    2.41674832999969
H          -0.80408651194193   -0.05376236463124    1.58515384115058
H          -0.93876594819724   -0.06515793158573    3.14095147261528
N          -0.35630962273566    3.00122017699168   -1.12541517362770
H          -0.31391973695628    3.87287399114794   -1.63946461045526
H          -0.73333555861795    3.19496630465616   -0.20600486014385
H          -1.02803399846523    2.39199653728183   -1.58936767274166
