    26
        -50.44817519  Gyration_radius:  2.50394289036 Dipole_moment: 5.990
 S          -1.40727751358430   -0.67817029868665   -1.58297800882378
O          -1.36756923231896   -0.46835372508342   -0.14475969780340
O          -2.66680279625544   -0.43694205667291   -2.18916302394995
O          -0.28685414345209    0.20929782926076   -2.20721951584800
O          -0.88849136644230   -2.07527612557969   -1.89039628549048
H           0.13970364094541   -2.05199432155675   -1.60234040292383
H          -0.36317673988395    1.14378672782416   -1.83654404044357
O          -0.33610903644721    2.54530893741597   -1.17403339499872
H           0.12762700655542    2.39333406999186   -0.30056448063181
H           0.20873354043969    3.16167100095458   -1.66671165895872
O          -1.70750262430548    1.27724846774810    1.85525058055731
H          -1.69047290978526    0.67655964630228    1.08279248203300
H          -2.37134897595952    1.93898321979308    1.65641343727250
O          -0.43630658607461   -1.38633012821404    2.17929277693029
H          -0.85070248625602   -1.28606838099973    1.30083549060581
H          -0.85205749142460   -0.70482911852180    2.71746855638348
O           0.80350557816526    2.02000952303621    1.11695036907449
H          -0.03721858196962    1.83439042899009    1.57927333280939
H           1.26947443770089    1.16701154113331    1.07969228323470
O           1.88629275758681   -0.53655772757549    1.28885956258317
H           1.04414218325450   -0.89506633866083    1.67875917477596
H           2.56463128097314   -0.65607061934417    1.95530175953485
N           1.55500267587702   -1.85433344008840   -1.26773692767580
H           1.66965085734080   -1.39083335809345   -0.36534624245597
H           1.90032682803966   -1.23593952900808   -1.99005624483515
H           2.09279968725684   -2.71083622442728   -1.27303985095913
