    26
        -50.44477117  Gyration_radius:  2.61791718348 Dipole_moment: 8.906
 S          -2.26892604074643    1.21887633683135   -1.51493360842104
O          -2.34165296947602   -0.14002456839027   -1.04473572391318
O          -3.48245249329094    1.86712384200685   -1.84785983677069
O          -1.51598387071709    2.04078210962453   -0.39804604909901
O          -1.28258362361924    1.31064009478240   -2.69169230766865
H          -0.45497126011696    0.82872087794344   -2.38360660071745
H          -1.42219755214410    1.48883321620337    0.42017102636816
O           1.25144225153587    1.59329425650889    0.63160890710435
H           0.95687998146900    2.45534677182389    0.32744301480385
H           0.53292722625679    1.25596307244090    1.19339017313023
O          -1.49956098178157   -1.69920079833145    0.93939615662496
H          -0.67081651243211   -2.02989195613517    0.55105378965468
H          -1.99722372852980   -1.33807920212244    0.18262223627339
O          -1.05734074061101    0.67538812744249    1.80134830764674
H          -1.70107349949763    0.86436320687973    2.48553521168646
H          -1.20295203173012   -0.29250455614748    1.53586958723521
O           0.76245219493139    0.15684587998779   -1.67277159225269
H           0.62125889933370   -0.74774243920387   -1.34135882744181
H           1.01892763645486    0.68353642970063   -0.89215063260264
O           0.88202993778790   -2.22938501692426   -0.31341188988725
H           1.62379541036108   -1.81761607177740    0.21011139419788
H           1.21641903423970   -3.04176223648462   -0.69432204320115
N           2.83279369207969   -0.94859473024892    1.00673653880486
H           2.92223868935338   -1.16229732834720    1.99222458577641
H           2.52323753407516    0.01565708904840    0.92792936056132
H           3.75333281682268   -1.00827239710526    0.58944881205970
