    26
        -50.45164197  Gyration_radius:  2.55185949047 Dipole_moment: 2.064
 S           0.96151233933376    1.30680328840964   -0.46579187215232
O           1.23500281501850    0.34819386029903    0.58688474801561
O           1.94808147715422    1.44528657733243   -1.47339978318950
O          -0.39021501631513    0.90529807216983   -1.11233382817842
O           0.68400893401340    2.67311094183716    0.17502540191960
H          -0.02546090299425    2.58847777042483    0.90904168171991
H          -0.92453416243032    0.45587284290451   -0.37353400994756
O          -2.19639351942691   -2.39924466165449   -0.42936376885273
H          -3.10366725614420   -2.54365712343914   -0.70143335721183
H          -1.68486801376705   -2.20058578130224   -1.25828168275951
O          -0.84038070441610   -1.58311528476465   -2.53495251677311
H          -0.96497614630592   -0.62945585292374   -2.55099415524697
H           0.11547660351863   -1.69786850982921   -2.30953176956298
O           1.04418549448100    0.98410708093929    3.18066621436422
H           1.82006998690498    1.45429406379792    3.48949156736644
H           1.24952150800259    0.66946613207081    2.27871302184147
O          -1.45273063833439   -0.27762217091526    0.87117918247790
H          -1.82974115861268   -1.11253695723326    0.47151830126664
H          -0.59230884738863   -0.52868011444536    1.23118318760202
O          -1.01103499233821    2.23086790700712    2.02082259989352
H          -1.54438358289812    1.47854743381874    1.72860725792124
H          -0.37934794916547    1.86474372653026    2.67801450415792
N           1.72476664017631   -1.44693729783743   -1.70972327921445
H           1.71930586797434   -1.41742766592142   -0.69643885494404
H           1.96220057377537   -0.50518728475203   -2.00747733426749
H           2.47591063016789   -2.06275100254548   -1.99789145625229
