    26
        -50.44513350  Gyration_radius:  2.56987414503 Dipole_moment: 6.822
 S          -0.24523419630232   -2.24631858638857    0.86690318433662
O          -0.86019952597734   -1.09048391228956    0.24725742610739
O          -0.79910539441548   -3.50276909826956    0.52918934650135
O           1.28602953015835   -2.18359673560586    0.54131130548200
O          -0.22244856206223   -2.04257912173788    2.38584984656013
H           0.38225134454185   -1.25186965516261    2.53829854425869
H           1.44495775179356   -2.14895025190792   -0.44948353510517
O           0.38398076987872    0.44642348197650   -1.53561283281198
H           0.77667712144467    1.06597627318659   -0.90192133861341
H          -0.19841602752984   -0.11288585198260   -0.98056214590574
O           1.49940861955218   -0.14753197528020    2.45278681897405
H           1.25240897713691    0.61362341620474    1.87465596522357
H           2.16084219829735   -0.65127396796037    1.97033097774762
O          -1.70670955146310    1.42914325421192    0.88484906965325
H          -2.01730206738987    1.71295214449499   -0.00669362310364
H          -1.63329804858277    0.46386641318917    0.82166025518351
O           0.83679101263108    1.87378731234769    0.82766823585270
H           1.03181742077614    2.73500756414896    1.19949822227048
H          -0.16520615554903    1.76391707641756    0.89192678246022
O           1.75700309427885   -1.77417441627618   -1.95363287448439
H           2.68254061532862   -1.59933636897719   -2.13628305542897
H           1.28363854937087   -0.90677731065932   -1.98983941525868
N          -2.23450597669174    1.91252683923568   -1.74846321953192
H          -1.36376896580148    1.50266294996384   -2.07599949529023
H          -2.34181395654693    2.81864256687722   -2.18581013128240
H          -2.99033856687708    1.32001798024093   -2.06788430380025
