    26
        -50.44974722  Gyration_radius:  2.55082879763 Dipole_moment: 4.131
 S          -1.88894538286791   -0.12207052607586    1.40490242464857
O          -1.33355892438303   -0.44815156976782    0.10211116370879
O          -2.63420804244352   -1.15633173795472    2.01898475971908
O          -0.71175246650884    0.36392825600978    2.29289718196501
O          -2.72299691375276    1.15762915008733    1.28755968512312
H          -2.08581903792617    1.91240748734331    1.06685302446654
H          -0.02307415829774   -0.38443224825532    2.34487600256249
O           0.11331217317583   -2.16469664471812   -1.39403804811800
H          -0.50323976819003   -1.59540769173753   -0.89517786851449
H          -0.11029628009503   -3.06511552379266   -1.15256858497746
O          -0.90940899612379    2.91575396089256    0.84635605839713
H          -0.47280001014142    2.93526313928073    1.70176654195991
H          -0.28604147282067    2.45406598397421    0.23510854136300
O           0.57930249760192    1.24219762515196   -0.56635527077531
H           0.65584183127591    1.14850464776749   -1.54572584084589
H          -0.13120573627778    0.60797044932755   -0.33050313916156
O           1.05136033765739   -1.45171317077506    2.28552844479155
H           1.52946819655872   -1.29718848579584    1.41445849613868
H           1.70636030684088   -1.33965966135818    2.97744391398409
O           2.14637379966129   -0.92467284353638   -0.00862323206535
H           1.81734526828636   -0.01863499440547   -0.16533709308045
H           1.61329204232702   -1.48118668946944   -0.60500010124901
N           0.66557743681355    0.34618808352506   -3.11373225477012
H          -0.08385441305395    0.62131420531032   -3.73586825012535
H           0.48974882876584   -0.61156267427599   -2.82430033654864
H           1.52921888384414    0.35560147321951   -3.64161621855218
