    26
        -50.45449946  Gyration_radius:  2.43256926724 Dipole_moment: 5.472
 S          -0.06668271314280   -1.96694068145886   -0.48228171633841
O           0.99871033470716   -1.01018319920899   -0.69504770282321
O           0.35753966260338   -3.25639092900616   -0.06142105897834
O          -1.07248618453659   -1.35939556894477    0.52256389778833
O          -0.91845766172838   -2.05253897311291   -1.75697365165132
H          -1.10103918268136   -1.09846167350719   -2.02465697417340
H          -0.56993551710389   -0.99336161587156    1.38274471152570
O           2.27713712032095   -1.76314688143275    1.51760575832546
H           2.02865660209204   -2.69234765172790    1.49694222507852
H           2.07495166450309   -1.43851441417013    0.62261718482662
O          -1.47756689332160    0.40740307573573   -2.29254628317458
H          -2.26887728069096    0.41223062865099   -2.83577783691393
H          -1.75146189841850    0.76740493312468   -1.40225369492259
O          -2.21190418703181    1.13721987591418    0.11737812341574
H          -2.18991368899076    0.23282384240012    0.45711220713075
H          -1.49535802649044    1.59961385142182    0.58866166032873
O           0.09563939468449    2.08089207472784    1.29544359594187
H           0.33208205005395    2.92649192198355    1.67781420199759
H           0.55254384685612    2.01986216573591    0.39792109804642
O           0.19662730858684   -0.38965780880226    2.42455606025575
H           0.26297244949782    0.54164940447715    2.12815660284864
H           1.07599248079699   -0.81399205794036    2.28216518302123
N           1.13912922194774    1.79122877991212   -1.09686960554199
H           1.19597011365478    0.77311408858354   -1.05284659924277
H           2.04988723802030    2.13753590498659   -1.37075408466269
H           0.48584375579550    2.00746090752949   -1.84025330209468
