    26
        -50.44608358  Gyration_radius:  2.61299477429 Dipole_moment: 7.372
 S          -2.15488091649969    0.41519199548835   -1.72786314977163
O          -1.88831760175111    1.27543870308603   -0.59773971409208
O          -3.03590621600783    0.92794733257017   -2.71127873686615
O          -0.75179580759311    0.08841368614401   -2.37368421551159
O          -2.59945232328195   -0.95959063136153   -1.24389482214489
H          -1.97954565180813   -1.23784397393364   -0.47711486032375
H          -0.31594349916734    0.97494261399920   -2.49659154186071
O           1.33156870569297   -0.86042451314527   -0.70510086741826
H           1.20816301175014    0.05565732408895   -0.36216581214974
H           0.97979293889239   -0.84551131673155   -1.60103332443037
O           0.20669685200921    2.49890264425658   -2.25401338702652
H          -0.60239527906153    3.00157130147733   -2.12547734203056
H           0.62075701102006    2.42174140679837   -1.38027460607237
O           0.55929374167175    1.49536626155411    0.32567003699160
H          -0.38739175267617    1.44736567997063    0.06278754934821
H           0.55118405425078    1.24647044934667    1.26194762675921
O           0.11479114639534    0.01118237408801    2.60925751281044
H           0.88539431351949   -0.60804994994371    2.49451251378387
H          -0.11337416634269    0.01182066177048    3.53888570640012
O          -0.93575590026212   -1.55304631741303    0.57051961626246
H          -0.87560987847242   -0.91873384786061    1.30619206797861
H          -0.07298961050696   -1.47624713718801    0.10486142437674
N           2.13106330752280   -1.68470873952487    2.06297433291730
H           2.14715348600970   -1.57518484058239    1.05289200919418
H           1.91290117110516   -2.65405089795171    2.25844252816858
H           3.06459884362052   -1.49862026904193    2.40728944471939
