    26
        -50.45376574  Gyration_radius:  2.4595701411 Dipole_moment: 4.182
 S           1.74774129233180    0.81015085960594   -0.46021859519085
O           1.08655329927932   -0.36810071141904    0.03528445869372
O           2.27879820391484    0.70312834152368   -1.77841932882245
O           0.76319505250088    1.99581346776590   -0.37154392245266
O           2.87185042965885    1.21579828421352    0.51785591138589
H           2.39474755648401    1.30148357874763    1.38537908883361
H          -0.19630250041541    1.68606401815034   -0.13014964887096
O           1.20959743987708    1.52231882652906    2.48909987939509
H           0.75592458417735    2.31302469002281    2.18537937438936
H           0.52867840689438    0.82017095717466    2.53823420699351
O          -1.53543346653743    1.19943254777543    0.26888749923008
H          -1.71616878807064    0.44306557489707   -0.33370728054012
H          -1.42510546421343    0.80317169784747    1.15208903759196
O          -0.71383414068669   -2.13672531683390    0.87864728100474
H          -1.34946995840530   -1.94108591524639    0.17486237513097
H           0.11270313545942   -1.73923851875197    0.55744646746320
O          -0.94306581916316   -0.15372963374634    2.57027610465014
H          -1.31254907564219   -0.43424551178906    3.40847534064987
H          -0.84366985308006   -0.97510700455818    2.01008302760165
O          -1.93031892195489   -0.92049074997113   -1.33462168405401
H          -2.66451166877779   -0.86336733657673   -1.94788155273891
H          -1.09471080254590   -0.97042578211686   -1.89084635275385
N           0.24239521894030   -1.05873380364365   -2.85120657371631
H           0.63466472910278   -1.99036723546530   -2.77977971283692
H           0.93536924547299   -0.42323400201729   -2.45617942762738
H           0.16292185544370   -0.83877133213236   -3.83744597340893
