    26
        -50.47133213  Gyration_radius:  2.51765182405 Dipole_moment: 3.520
 S          -0.06451219546110    0.36216319048368    0.83619149810241
O          -0.65149217961288    0.31517759014169    2.26727249179735
O          -0.81123699539363    1.37421346676819    0.10691210643440
O           1.35126758589319    0.69284156559129    0.93055801375313
O          -0.25031519714652   -0.96602034120037    0.23831158701018
O          -3.25850695894796    0.73741327351922   -0.65221605400234
H          -3.72930817985516    1.54763934831380   -0.85456482105533
H          -2.41875976379949    1.01348056591608   -0.21899527517509
O          -0.05574053481274    1.47476433821733   -2.48440033774060
H           0.86604839767712    1.16447850269252   -2.36679624630519
H          -0.32580389515886    1.74380957136593   -1.58620131448943
O           2.70793652252971   -0.87879125505873    2.57513980200514
H           2.30209310871090   -0.27127616347180    1.91936751974863
H           2.98931989985056   -0.32874943697131    3.30823183252884
O           2.23622438852765    0.45912249988762   -1.55823862236510
H           3.11841948851985    0.83475423445244   -1.57141531748648
H           1.94104808873807    0.49711657598415   -0.62343610835833
O           0.28879616811879   -2.03408397765511    2.66312572318449
H           1.24235430479547   -1.82436139704470    2.76034754127022
H          -0.36879639812589   -0.58537501464433    2.60585689343202
H           0.14218355035057   -2.13247674506618    1.71088828653055
N          -1.46429048173733   -0.67036087991816   -2.03657742429863
H          -0.94831015743207   -0.93300743687446   -1.14124287469619
H          -2.37716576760386   -0.28339001546596   -1.71674128365953
H          -0.89902502213074    0.14594122238985   -2.44124428120319
H          -1.56242777648558   -1.45502330234265   -2.67013333495632
