    26
        -50.45489003  Gyration_radius:  2.44096877843 Dipole_moment: 5.965
 S           1.13428345259742   -0.22465841439798   -1.56502680617040
O           0.30291973191526    0.75071702904261   -0.89846570388342
O           2.43301529014148    0.22920588221798   -1.94501339610877
O           1.26587974687467   -1.45705564650310   -0.65569131460047
O           0.37928941997795   -0.74233166152741   -2.79785208649998
H          -0.55938181300587   -1.01267414696405   -2.44363315590026
H           0.58138944309625   -1.43626786090595    0.13646692195061
O          -2.48108689540438    0.33044446426340    0.69867098004261
H          -3.05954163966158    0.34371976095603    1.46376390901580
H          -1.92156343759516    1.13082433538203    0.76171013263018
O           3.10528568927504    0.51233167353804    0.66138655227332
H           2.94150789985649    0.55686690014961   -0.29564896508639
H           3.59210525990697   -0.30261592084540    0.80296365620138
O          -0.34324930556145   -1.32153164291357    1.25633194037984
H           0.18216532321020   -0.69979906184759    1.83182856723858
H          -1.12303896927549   -0.80064729091314    0.98441766305006
O           1.00948846809750    0.59368808307012    2.42287464078761
H           0.48114096735808    1.35493438392562    2.14734280268755
H           1.81397639109781    0.62032116153865    1.87043542882121
O          -0.65108331810908    2.33972543335099    0.92546412942646
H          -0.64867475192021    3.24792586756547    0.61969096094157
H          -0.19600072498451    1.81707317267780    0.22798837175906
N          -1.84667763616811   -1.39515519530965   -1.69707652892340
H          -1.66381100093022   -2.21442324338245   -1.13085213155140
H          -2.63066935705974   -1.58911082660760   -2.30636204458960
H          -2.09766824341398   -0.63150726527781   -1.07571453572371
