    26
        -50.46815427  Gyration_radius:  2.47589132573 Dipole_moment: 5.890
 S          -0.44149276421874   -0.67378296282287    0.79925687866607
O          -0.99038650219765   -0.98383773029187   -0.51438411340725
O           1.01534400513032   -0.66182364374664    0.79281520901283
O          -0.96456295229013    0.61218621166433    1.27990231103653
O          -0.92568768312950   -1.74144067368005    1.80299685047618
O          -0.16232624439884   -3.38638351407436   -1.25649157911222
H          -0.93787440857898   -3.89274843779227   -1.50317301491655
H          -0.47503239499281   -2.47160910858790   -1.08742741067518
O           2.07469682736047    1.23834266910286   -0.69312176268655
H           1.90994924022987    0.41773635602264   -0.17740960519945
H           1.37925706458226    2.14325506257697    0.20548255973464
O          -1.84996678949485    2.43802550472470   -0.45773396344725
H          -1.69652704489967    1.69889781477734    0.16847499494053
H          -2.77226731647340    2.38492304173454   -0.71193538691505
O           0.97227807330415   -3.32837147634949    1.16697262262970
H           0.67671826519772   -3.58715155859012    0.26832164141655
H           1.48024972275678   -2.51329801317855    1.03911416474587
H          -0.25917671935367   -2.48240344241178    1.68042692753477
O          -0.12650478891401    0.99250235207919   -2.10878747457445
H          -0.43832393010897    0.17087016758040   -1.68314949643910
H          -0.73286147308442    1.67651253091083   -1.78546990076637
H           1.42138349482908    1.17616932584082   -1.43516231438072
N           0.65367547140159    2.62258157976405    0.90487470642264
H           0.05894575875597    1.80649234074479    1.23924988177868
H           0.02734572915994    3.24156323987840    0.39000170378966
H           1.10314735943104    3.10279234412253    1.67635559033745
