    26
        -50.45376638  Gyration_radius:  2.46001828136 Dipole_moment: 4.202
 S           1.29802785558950    0.72747301120972    1.30847863421797
O           0.57181316373537   -0.44401800042973    0.89492415968440
O           2.69874448423979    0.70177302277664    1.04705081449426
O           0.65006383863773    1.96196950132709    0.64528684071804
O           1.05872628866449    0.97333439988879    2.81408813515314
H           0.06797260996347    1.01509342437179    2.88145119828457
H          -0.06115995045153    1.69466080183526   -0.05943288430257
O          -1.50625136464892    1.21577431904510    2.49426983899252
H          -1.52595510118784    2.05609811507590    2.02863168400703
H          -1.88706399028029    0.55514361285819    1.87971630907262
O          -1.10373761187156    1.26296850518347   -1.01825818109664
H          -0.66472403149641    0.57709126377682   -1.57012100583796
H          -1.77095087884895    0.78287328485597   -0.49532466638748
O          -2.66638620118038   -0.32699552909346    0.56590206168104
H          -3.55869810543859   -0.65798114234573    0.67538038853739
H          -2.10747043125052   -1.09932456010852    0.26642109146859
O          -1.03821903834641   -2.16038891054344   -0.34676729784326
H          -0.79642966408553   -1.86200639496741   -1.23564262244167
H          -0.33807797039002   -1.79077958309357    0.21673231811005
O           0.11733189420375   -0.67470194079194   -2.42441522531695
H           1.03908753182086   -0.72178614135554   -2.02716527818732
H           0.23143524504661   -0.51790358972399   -3.36288002053959
N           2.57602084430354   -0.79588827327945   -1.43269638949056
H           2.58692601786246   -0.25694349558157   -0.56700477174049
H           3.34488746488956   -0.46156634202149   -2.00221072625122
H           2.78408711044248   -1.75396936886774   -1.17641443506518
