    26
        -50.45521614  Gyration_radius:  2.43536039166 Dipole_moment: 2.517
 S          -1.59694338515544   -0.90977296027179    0.29150357119242
O          -1.10236636218025   -0.86107719161806   -1.06747616240579
O          -1.75355119547181   -2.21440748416075    0.84101548843858
O          -0.65935535516345   -0.06080890544988    1.17162766031460
O          -2.91351856241647   -0.12300189535894    0.38914756792141
H          -2.76363020470665    0.68089668326046   -0.19143583572746
H           0.37283026102482   -0.31951129859235    1.01941626119323
O           1.08162424045414    2.03586342025825    1.77557500044808
H           0.27880642957338    1.58000821037934    2.05335997042538
H           1.74327889700143    1.34222971857491    1.66797548071979
O          -2.11575108759078    1.63132005411705   -1.30307741154515
H          -1.78488747026406    0.85491964099225   -1.77545932870132
H          -1.31762448937580    2.12441808830240   -1.03018430770990
O           1.28117904686116    0.26739383746091   -1.67679501796735
H           1.03911699122632    1.19492863238916   -1.52589323099522
H           0.44170012960459   -0.22593447127013   -1.66416367769565
O           0.33124146490270    2.70008831893038   -0.69237033620287
H           0.61437013262313    2.51993279655645    0.23755288547530
H           0.54780476358985    3.61618467101530   -0.87218271413021
O           1.71826183027186   -0.61928278822425    0.74031748443021
H           1.61816371867479   -1.61243338256026    0.65512320283527
H           1.77063575363410   -0.28849826727663   -0.19789411076239
N           0.94764822408667   -3.10592157619704    0.34830568342013
H          -0.03736610472541   -2.95142499733475    0.56310102589807
H           1.25624669035569   -3.91211726398283    0.87758111917080
H           1.00208563316261   -3.34399158993909   -0.63467028803653
