    26
        -50.45467818  Gyration_radius:  2.42223020811 Dipole_moment: 8.414
 S           0.58354138596605    1.20627725865369   -1.85606673247082
O          -0.10402546144877   -0.07927580512075   -1.96365798619798
O           0.10864917647103    2.22523795551615   -2.72916659261708
O           0.31296903733523    1.67763162384779   -0.33362362006113
O           2.03313391956105    0.98307941161065   -1.83303122302277
H           1.99832065281195   -0.21945788143681   -1.05434796580789
H          -0.66161110182762    1.60657797568620   -0.11341689164460
O          -2.08801884566199    1.19055583005648    0.50278004251993
H          -2.41563061052802    0.52206760918183   -0.13142192793108
H          -1.81342977596977    0.69173570503397    1.28613876120176
O          -2.45966492879829   -0.78193493441997   -1.30196256930240
H          -3.05431205646868   -0.80497904055893   -2.05216267614222
H          -1.57854676813928   -0.47859239991806   -1.65983985542832
O          -0.70601011775688   -0.34624441645694    2.42811705276412
H           0.16612559891666    0.07607017438488    2.29444468123446
H          -0.79892148677006   -0.52113051611130    3.36532531474186
O           1.67122303444567    0.79600103534109    1.73500607556457
H           2.15147136133287    1.51233849489214    2.15307453113853
H           1.22854425869108    1.19420155887385    0.94270656418568
O          -0.45296767862122   -2.07550340143226    0.25306197722288
H          -1.15935219883019   -1.85716635418190   -0.37171609046338
H          -0.65392700480618   -1.57090338884060    1.05787355375188
N           1.95055511992597   -1.05633315843959   -0.33029967917636
H           0.96414741552932   -1.44458355938639   -0.29126348139952
H           2.17176881730592   -0.65809630288322    0.58861478674734
H           2.60596824733857   -1.78757348387839   -0.58516604941882
