    26
        -50.44930991  Gyration_radius:  2.46628413156 Dipole_moment: 5.456
 S          -0.18587666640298   -0.07046953215673   -2.20976008015139
O          -1.12148468658853    0.06976233350133   -1.09674388213991
O          -0.63079181685898    0.50217464504749   -3.42682702720917
O           1.15840798861154    0.56066094540864   -1.74052976250340
O           0.16776638381767   -1.53361229800187   -2.37849748459948
H           0.48323961923448   -1.94434319451791   -1.44574537728142
H           0.90166099310558    1.43828902341121   -1.32598128044190
O           0.77920899226722   -2.41760048987036   -0.13750047038667
H          -0.10536192858894   -2.43486485613002    0.27524048040381
H           1.30016394049128   -1.69121038368599    0.31953776610791
O           0.35386063447392    1.79196835435984    2.03871584737418
H          -0.52519887379135    1.34902369317012    1.93294562389994
H           0.24422730646760    2.45959601884859    2.71759540012495
O          -1.95322087240632    0.68184138244940    1.41432325511602
H          -1.75991876121933    0.60127022634698    0.46433029771520
H          -2.13027393048669   -0.22024700687721    1.69962549153233
O           0.24319450430694    2.62090570676982   -0.53061833628814
H          -0.69259399725023    2.50996270003993   -0.71910245389606
H           0.36818283231707    2.38542548474039    0.41730723334700
O          -1.86626376733134   -2.05106439409073    0.33425327044894
H          -1.67929177286661   -1.30113284966183   -0.26951315568663
H          -2.40360688505579   -2.67066199498069   -0.16123924803370
N           2.12275711859372   -0.38920448423376    0.91423308989782
H           2.37331402260070    0.05678759150058    0.03863402900295
H           2.97447123337210   -0.58573634510815    1.42398035036343
H           1.58342838921747    0.28247972373343    1.45133642322173
