    26
        -50.44730749  Gyration_radius:  2.4750706224 Dipole_moment: 6.746
 S          -1.83341791844357    1.49066339590590   -0.74853064242581
O          -1.29413047175317    1.96695029132500    0.49352328992838
O          -2.30888080351423    2.45456113854058   -1.67215666334193
O          -0.70455371427246    0.61883361589549   -1.43926938782074
O          -2.89558737614402    0.41442021858316   -0.49764554671396
H          -2.48811194743412   -0.23175328763873    0.17144775425761
H           0.20783242140441    1.00961802495997   -1.23499272101249
O           0.72987386414775   -0.75035860346221    2.09325885603007
H           1.22631866753171   -1.02640823944493    1.26488875954140
H           1.02267268747699   -1.32152899083976    2.80412213650685
O          -1.69211017864389   -1.28872353836881    0.96151782296254
H          -0.92687710707230   -0.95246134357258    1.46891448714651
H          -1.31465292812255   -1.81086288424473    0.23086190257732
O          -0.72843159361726   -2.10846562485770   -1.48672220629594
H          -1.42558251281259   -2.46146931323428   -2.04246069181833
H          -0.72393862049437   -1.14389665876572   -1.62683033111478
O           1.59790853864200    1.57731457919965   -0.87645142644740
H           1.68007812405797    2.45014200307930   -1.26541540845184
H           1.51451335045796    1.72488699923594    0.12214148440353
O           1.11499371834647    1.92295466390055    1.63129918605023
H           1.05496394747478    1.02095151126992    1.99188794022107
H           0.19175942138514    2.15566241425949    1.42675092374501
N           1.91745605281817   -1.39750782293269   -0.18378787098879
H           2.06176355171350   -0.49918075018629   -0.63276622801534
H           1.22756941671553   -1.90364336101812   -0.72871875288382
H           2.78857141015256   -1.91069841758787   -0.22486662603921
