    26
        -50.46288790  Gyration_radius:  2.50945780025 Dipole_moment: 4.864
 S           0.24953268824191   -0.79942048664689   -1.71526808538636
O          -0.33140611773182   -1.03763549307668   -0.37941011184128
O          -0.76339052651959   -0.66761807688541   -2.72609879140333
O           1.16069768647605    0.34665843720000   -1.65461250883229
O           1.11176989402332   -2.05337170001028   -2.04460541940420
H           1.77946703789159   -2.06565069677539   -1.32727751576506
H           1.02581524228299    1.22213653623315   -0.48282588102105
O          -1.27340796511544    0.22349566970712    2.98808217876468
H          -1.95163982562329   -0.37316514829095    3.30748277538704
H          -1.61232161321468    0.59987361528445    2.16023448924418
O          -1.76740994971107    1.02843869908579    0.36253819961675
H          -1.37978864747661    0.15974948313990    0.10017027438655
H          -2.09663753008974    1.38365530572046   -0.48926269907695
O          -2.12870116649698    1.53914126269692   -2.22030497914795
H          -1.58552729939089    0.75953526287164   -2.47966604688281
H          -2.91708017328307    1.49328550530050   -2.76394890896380
O           2.69291021088585   -2.14130843035978    0.11371721534319
H           2.64973198670914   -3.04660410919934    0.42968237181914
H           2.30869566492060   -1.58684755783738    0.81077547634837
O           1.04270549446787   -0.61870717619508    1.78634334232964
H           0.37102682665931   -0.46926149877596    2.47477900332786
H           0.51137759312249   -0.87973806638893    0.99010466913751
N           0.80173240173581    1.68738120390775    0.47549687498676
H           1.23114944853049    2.59841672887042    0.58168820878546
H           1.12057158552877    0.98701418502361    1.18414116506069
H          -0.24987296681535    1.71054653539849    0.51804470318462
