    26
        -50.46288795  Gyration_radius:  2.50948304219 Dipole_moment: 4.857
 S           1.89255907954113   -0.08102622234550   -0.23385203099981
O           0.81521434453912    0.72454625577605    0.37377071579061
O           2.71435262181559   -0.71583697943487    0.75954133551624
O           1.31490444244407   -1.02262000375311   -1.19668624388534
O           2.77763091884573    0.91404508279634   -1.04054902275891
H           2.15587456588007    1.29081290232470   -1.69779353606973
H          -0.13123604547972   -1.25765580790059   -1.08779474521644
O           1.22462394709368   -2.49328847812801    2.02867856885539
H           1.82299228081342   -1.89992532520133    1.51876888644636
H           1.71890663816582   -2.74306263783021    2.81132319339334
O          -0.81898164370800   -0.82247212297269    1.72149642979690
H          -0.17791187692455   -0.15908765090679    1.37117546593085
H          -0.23442160889675   -1.54820709288023    2.02430074687701
O          -2.76123687351912    1.13563955281692    1.29864027191206
H          -2.76986451851073    1.78091915424251    2.00687599404695
H          -2.20821056532284    0.40105393055188    1.60897135526988
O           0.92586132338599    2.07288787643454   -2.58785035348500
H           0.04645346713997    1.88832651277262   -2.22245514562038
H           1.06711677401422    3.01781565892094   -2.49602991782364
O          -1.28194663486568    1.42620023563250   -0.99156364206216
H          -0.46143459361509    1.26146333114568   -0.45858203623793
H          -1.96769996837359    1.58371433372062   -0.31894320481562
N          -1.19817143541082   -1.23318667480737   -0.87357790587646
H          -1.25770538107980   -1.28272280548394    0.17632831612899
H          -1.71182495892499   -1.96893033495315   -1.34317052810534
H          -1.49584430904660   -0.26940267053102   -1.15102296699541
