    26
        -50.44425809  Gyration_radius:  2.51006813037 Dipole_moment: 6.550
 S          -2.12333502056425    0.16542735557072   -0.99773836993720
O          -0.78210661636958   -0.33771998790563   -1.21701932722781
O          -3.17127181565883   -0.66641636312624   -1.46073536295581
O          -2.25734046450043    0.47978580947585    0.51955965408646
O          -2.22619867832023    1.57028544017002   -1.61296620726701
H          -1.56447954921167    2.11524310261999   -1.09279228029191
H          -1.92440488585541   -0.32005050017418    1.06581716703209
O           1.73826670219866    0.17791829250036   -1.99390681787557
H           0.76812672001914    0.11511080598616   -1.93842560960681
H           2.03985745198229   -0.72494096810861   -1.84422599611910
O          -1.30831201413127   -1.38258492159627    1.92840625474038
H          -1.53730660288437   -1.23212330180459    2.84767363332720
H          -0.30393168206977   -1.22765510156082    1.84352007195907
O           0.95032352178597   -2.39698501747284   -0.86557983718479
H           0.24444285481398   -1.73459180291500   -0.98377523116733
H           0.52109980555697   -3.25053941005667   -0.93567293384584
O           1.87647166733697    1.64007162847201    0.18949343770078
H           1.89209839588959    1.09662243141835   -0.64329954345675
H           2.51391976867138    2.34412577533917    0.05899782406493
O          -0.60365769432871    2.67025109505534    0.04614446175576
H          -1.08579622499331    2.28395964297859    0.78364864222435
H           0.30616355492330    2.29291033170072    0.08416373557609
N           1.25268983817904   -0.94516536661634    1.64939020186490
H           1.91713098804396   -1.20021926719202    2.36871061877450
H           1.44943255282943    0.00808766541389    1.36096791646401
H           1.41811742679213   -1.54080736812142    0.83964389688576
