    26
        -50.46425910  Gyration_radius:  2.39970903972 Dipole_moment: 8.831
 S           0.19731127551298   -0.40769433424561   -1.76208214837379
O          -0.51324214148911    0.68803903441271   -1.11756273316107
O           1.00447584787807    0.03925582232637   -2.86733800399103
O           1.04259383618701   -1.08733151947035   -0.73226900931473
O          -0.82485014554708   -1.45351017207745   -2.24994975794923
H          -1.46028346747329   -1.62916462125894   -1.48587096131728
H           1.60906911974587    0.12578409665965   -0.03131308069782
O           0.00216276606018   -1.98268182921330    1.43490595686682
H           0.39604072016384   -1.68819737778762    0.56418345986037
H           0.48578873113076   -2.76923043158244    1.69132043705743
O          -2.38848770733413    0.72005995255379    0.73350515294395
H          -1.80070510422506    0.80830707736479    1.49263083540101
H          -1.80121235750333    0.85502718950586   -0.03695161327676
O          -2.28429371867091   -1.81921708094602   -0.15029261978574
H          -2.55619859213641   -0.92026987970508    0.14153973391765
H          -1.63341584056194   -2.10303095810378    0.50907039912543
O           1.45137298258255    2.41933321168433   -1.83516397590263
H           0.54121514408530    2.73146072371385   -1.82568216857610
H           1.40608771678749    1.59066279367208   -2.37154923405609
O          -0.01489174081271    0.53449523784143    2.43902777832290
H          -0.14394790692967    0.53143119684624    3.38846948905401
H          -0.05295463841678   -0.40017499240629    2.14436405297470
N           1.81029359425479    1.08873372125107    0.40801615404088
H           1.11268511034474    1.21227223765748    1.15691967445508
H           1.65922222109633    1.76489802034414   -0.40883771781279
H           2.75616432526981    1.15074287096520    0.77090991019621
