    26
        -50.46425911  Gyration_radius:  2.39968956755 Dipole_moment: 8.833
 S          -1.38716074015221    1.17208934758903   -0.10732885175168
O          -0.57827317634422    0.56398247126621   -1.15459359485874
O          -2.79491760212712    1.12094834371174   -0.40481445366913
O          -1.09372084807229    0.46777946052621    1.17904370645858
O          -0.94581609983582    2.63665025000330    0.08427371753659
H           0.06168879833660    2.63999115231350    0.14330175533536
H          -1.09781927004853   -0.96202551183728    0.68973495538278
O           1.61922985559158    2.41719591920718    0.29412084274410
H           1.71603099251128    1.81790730356107    1.04937513784591
H           1.90233446768194    1.88420343778698   -0.48244340751068
O           1.31209759851954    0.27296817754964    2.04792669091438
H           0.36957233291942    0.40209463843796    1.73978135398102
H           1.28263784510822    0.29556678955791    3.00548675085897
O           2.02614429760819    0.50172648440544   -1.55085758272258
H           2.19225962062084   -0.33355798312077   -1.09892531692772
H           1.05070330410403    0.55236666857822   -1.60260665191675
O           1.75397464966072   -1.75107498484616    0.30067824497355
H           2.54406651001137   -2.24320728074013    0.52792430104418
H           1.67717506240562   -1.02112941163185    0.95118065648735
O          -2.62071208179842   -1.10451691361000   -1.80009878784044
H          -2.88539828744406   -0.28641622381276   -1.31324548143207
H          -2.05374379996813   -0.77420797091252   -2.50391015211885
N          -1.02444634194372   -1.88681634562661    0.14187509424520
H          -1.38479358051436   -2.67304181466758    0.67310090977241
H          -0.02476749169277   -2.00970571404150   -0.07799962686436
H          -1.61634601504075   -1.69977028964152   -0.73098019998836
