    26
        -50.46824844  Gyration_radius:  2.38786989871 Dipole_moment: 4.315
 S          -0.71041419843731    1.05714609380877    0.22284216527279
O          -1.88352215212570    1.57305246573333   -0.46965514082312
O           0.25055759002603    0.59924186736907   -0.93704528360155
O          -0.00758189239977    2.01768455133957    1.03329292975917
O          -1.04569160356321   -0.17411940522507    0.95359383328822
O          -0.72633548095970   -1.55908521991483   -2.42489598460834
H          -0.24770276047734   -0.71996313858462   -2.44434356589885
H          -0.31173932549935   -2.05263354100685   -1.67454731317964
O           0.99747504375661   -0.05815049264278    2.66688308339756
H           0.13791158607743   -0.15454102082237    2.21534826908985
H           1.07072003505540    0.88155035443414    2.85681040592190
O           0.22024504717919   -2.31895018552567   -0.07658333292725
H           1.15802341479478   -2.13334287576719    0.03266124923977
H          -0.24334489615018   -1.61024610784241    0.41187336074504
O           2.58713898502086    2.42151259345113    0.52503515594817
H           2.67512243126378    3.15434450960435   -0.08512698329757
H           1.63801574696622    2.37904197138183    0.76288560875051
O           2.29059417895922   -0.24934026066245    0.35554337576370
H           1.94452263226815   -0.30783592105492    1.28071731764607
H           1.08662706057863    0.23954551660625   -0.48795940256819
H           2.76867267536231    0.59934317962523    0.34146575993145
N          -2.77082370524765   -0.73768174829096   -1.02577213484573
H          -2.51779316589237    0.31613642461448   -0.88861365800660
H          -3.72661243198302   -0.88452001829380   -1.33362359227033
H          -2.04031834545619   -1.14021580205369   -1.70970889970204
H          -2.59374648910776   -1.13797379028276   -0.10107721305717
