    26
        -50.44907712  Gyration_radius:  2.50483928947 Dipole_moment: 5.886
 S           0.70165571795185    1.79171239154671    1.40691197652755
O          -0.73855390394619    1.89334108181196    1.24591374664855
O           1.24831801278382    2.43925747028878    2.53992910490322
O           1.01102441288001    0.24972850546134    1.45784088975129
O           1.41355519504928    2.21844762156133    0.13711156638927
H           0.94420753219629    1.88379488517859   -0.74653863526470
H           0.26934824627067   -0.09740646602187    2.07912170145259
O          -2.03602986366439    0.75034312821386   -0.67986049451845
H          -2.84077060233774    1.24020217741507   -0.85643666784935
H          -1.59201780863779    1.21088701143182    0.07906304298712
O          -1.76690103274221   -1.70582537034032    0.54247061622767
H          -1.98519061817820   -0.93882918158951   -0.01318539676153
H          -0.89464706093934   -2.00925361618504    0.24238728239143
O           0.96451595894058   -2.11827650840566    0.09717965402834
H           1.12613531607025   -1.25265464984135    0.51322443075152
H           1.29739402625425   -2.77695139960296    0.70991906374419
O           0.29731936930018    1.37098901591229   -1.92742811749861
H          -0.59888333598442    1.10261840711426   -1.65077879930037
H           0.76656263883672    0.53366072561878   -2.20504841492547
O          -1.03116975496111   -0.45369965020491    2.73873006039939
H          -1.45612474892621    0.40924410928233    2.68051914129887
H          -1.43702700556217   -1.01649980492400    2.02317011130181
N           1.46776017415404   -0.93973452486378   -2.56954802067368
H           2.46591742741174   -0.84132870437338   -2.70269236812484
H           1.08804866468939   -1.40867146353340   -3.38177572922441
H           1.31555305306828   -1.53509519096718   -1.76019973466217
