    26
        -50.44954284  Gyration_radius:  2.48772320782 Dipole_moment: 6.132
 S          -1.14912756895623   -0.84811325554026    2.04774675242112
O          -1.69845666567328   -1.35485343442705    0.80425931370745
O          -1.33982749839443   -1.65606836820001    3.19402418699887
O           0.36925896582504   -0.60769968178378    1.77867616799783
O          -1.66750253697706    0.56865211242714    2.31240531836281
H          -1.42808526446251    1.16135236828202    1.51601495624596
H           0.58677591579818   -1.16862288917963    0.94469876450712
O           1.56322936993753    1.90330543694571   -0.48000310527142
H           1.97523340848865    2.74793667016491   -0.29164284755866
H           2.09593251009581    1.22305905879430   -0.00557200384798
O          -1.06786028996446    1.90881180502859    0.24414233535488
H          -1.52141864886278    1.39314673702811   -0.45107951752627
H          -0.11467045123393    1.89606358812141    0.02179860432721
O          -2.32582600245494    0.07330589019465   -1.30282841468609
H          -2.12886463452858   -0.53396624277829   -0.55039541840529
H          -3.28138534951450    0.11410104057724   -1.36557701264039
O           2.89796717357795   -0.01419478982228    0.83294900965199
H           2.81979501327775   -0.83089798448863    0.33020741384659
H           2.29459447148749   -0.11172186575246    1.58006047703416
O           0.81571127178340   -1.97027825395203   -0.29308456327604
H           0.72566739881271   -1.31498410570629   -1.06937620806048
H          -0.01693312899279   -2.45220599501607   -0.27377781290294
N           0.46592162794962   -0.23272030033412   -2.21601145004269
H           0.88974837687590    0.63931816130411   -1.91628637694799
H          -0.54018803527980   -0.09876375920147   -2.23569930019611
H           0.78031058138928   -0.43396196269062   -3.15564928909524
