    26
        -50.45208284  Gyration_radius:  2.52320787372 Dipole_moment: 1.271
 S           1.16392766653766   -0.55682321672571   -0.00108755036742
O           0.34256834037910   -0.21662751956680   -1.14042647249038
O           2.12420044924931    0.42011236391248    0.38065560323153
O           0.22969846989671   -0.84234616659390    1.20163796127517
O           1.88033420762774   -1.88528446715950   -0.25190160635859
H           1.19053074631540   -2.61842664550659   -0.38810413930901
H          -0.75138590763888   -0.88718009459227    0.93816039646548
O           0.10497127210148   -3.65531176037478   -0.66942466416832
H          -0.60993861485411   -3.13174728437369   -1.13265111707480
H           0.41819858918638   -4.30866913584565   -1.29840262993666
O          -2.24976659269585   -0.73753137154651    0.59157309610717
H          -2.17440302346504    0.17026489981509    0.14326234465925
H          -2.73251517634868   -0.59551972790155    1.40831755576259
O          -0.14407470253170    2.05311010064290    1.61502762802431
H           0.31747826694623    1.22083296209086    1.75326074312324
H           0.54784852723591    2.67823167802459    1.29687017296510
O          -1.55068165495882   -2.00301758809462   -1.80147592240862
H          -2.19249041948854   -1.75621732828160   -1.12387298639509
H          -0.89375008992568   -1.28156108653535   -1.79656971473293
O          -1.67856562975060    1.51866838139722   -0.47809129026283
H          -1.21856264376833    1.89898308637534    0.30837088723119
H          -0.96750785977876    1.15718184305801   -1.02726942475603
N           1.97189340574040    3.33904815399851    0.50017697302036
H           1.88493648330442    3.78821852610827   -0.40260974204121
H           2.31192110154866    2.39264884164384    0.34535400799421
H           2.67513477914402    3.83896254604979    1.02921992043744
