    26
        -50.45592082  Gyration_radius:  2.41423825436 Dipole_moment: 3.042
 S           1.64528879207888   -0.55989460218864   -0.54221241026027
O           0.53765977680478   -0.07198773605021   -1.32700974743041
O           2.92837758734922   -0.07301033435250   -0.91899054575735
O           1.35354341516210   -0.27558911822992    0.94360280448475
O           1.63850958534875   -2.10561282888502   -0.57496734848336
H           0.70583852681418   -2.39827428672845   -0.37363735872534
H           0.96490063239736    0.73433286043438    1.04024862713807
O          -0.96183556350011   -1.19322914273316    2.15302608105263
H          -1.48094214316298   -0.42443665711712    1.85437878524531
H          -0.03921448026466   -0.90454217226959    2.11290779031718
O           0.36649983984756    1.97640037237865    1.02822341424649
H          -0.57274148461016    1.75429536977492    0.87176505687597
H           0.75849443608174    2.33273666409685    0.17445641591251
O          -2.14191108495089    0.90543187237623    0.81080036103382
H          -2.99374539211641    1.33791133420154    0.87899842447864
H          -2.16838660589298    0.35029131284354   -0.01802303852950
O          -2.03815990620473   -0.66133561697780   -1.28241404139534
H          -1.95572335556309   -1.57295404039726   -0.97708425732243
H          -1.12003802209664   -0.39819426604262   -1.49301154571527
O          -0.78544096491897   -2.79955315268021    0.11117021947770
H          -0.77688555193559   -3.71222049972737    0.40599054650052
H          -0.91618693548691   -2.23749809105793    0.93133134527064
N           1.62479667341600    2.53647521301299   -1.21623273867103
H           2.30706966757958    1.78432458222277   -1.14922916166369
H           2.11276609616134    3.38864735890291   -1.46437268090567
H           1.00746645162243    2.28748560511361   -1.97971499714355
