    26
        -50.44606572  Gyration_radius:  2.49015715119 Dipole_moment: 2.909
 S          -1.78645329617005    0.85526419969096   -0.91525404445888
O          -1.90665848233555    0.41873543491803    0.45619471975799
O          -2.53482003094719    2.00068576294138   -1.28370455484899
O          -0.27179653493207    1.06308801434511   -1.22000587301116
O          -2.09896817716006   -0.32356099598645   -1.85218856173732
H          -1.44581398706134   -1.03787184711720   -1.58971760630115
H           0.13808092242806    1.71833668290066   -0.58362113448741
O           2.90519459650088    1.33172712747673   -0.86644075364246
H           2.65497945301976    1.28137617910995   -1.79113609412705
H           2.65861529890655    0.45106060117670   -0.48154280720428
O           0.35106399170810    0.42911165031976    1.93102940196143
H           0.69292884421478    1.32382372362336    1.83391669918263
H          -0.51501893193973    0.43650460659696    1.48298270324992
O          -0.43770965718992   -2.11602473829296   -1.04307072696428
H          -0.74162688107164   -2.23929826227362   -0.07986591178621
H          -0.54003133728272   -2.96276443207155   -1.48180034017636
O           1.02738923881953    2.68814421292327    0.31476105291897
H           1.00709014452468    3.59405517650109    0.00150988420536
H           1.86448235273653    2.27198228576891   -0.04465919852956
O           1.87585125893556   -0.89400756352774    0.12330431282344
H           1.39040709326758   -0.49938221631372    0.87786074646109
H           1.19464212375383   -1.25246648191472   -0.45990095441278
N          -1.27861908845067   -2.22233387855134    1.42588345433630
H          -0.51761415150543   -2.02006571408122    2.06400903921615
H          -1.86567796526198   -2.93120974305562    1.84632286896331
H          -1.81991678747631   -1.36490976509689    1.33513368860088
