    26
        -50.47231557  Gyration_radius:  2.41649671247 Dipole_moment: 3.653
 S          -1.23340266788032    0.49374375906089    0.60978291076024
O          -0.12547664090641   -0.39088414274977    0.99881311453085
O          -1.02937844816472    1.84161723122296    1.07154772185889
O          -1.39219957794231    0.43769356330307   -0.85742199757939
O          -2.52170108322237   -0.06115491247387    1.24633145847658
H          -2.51188883712944   -1.03988872238367    1.05084090365355
H          -0.06556666392247    0.97050293195949   -1.47653558717288
O           1.70516263883609   -1.19067664410749   -0.66510561170041
H           2.50563717938503   -1.29275252409284   -0.14615881995151
H           0.99363610427242   -0.98928905937661   -0.00405886630204
O           2.04817287004547    0.73942612895815    2.00208830674393
H           1.21832502915897    0.29596771152389    1.71611253657900
H           1.92796882153820    0.94115702077186    2.93111189097420
O          -2.49298236751071   -2.55883421217575    0.55327334261579
H          -3.35740270384516   -2.79990425784380    0.21328281401408
H          -1.88551602557533   -2.53587726076321   -0.22770021996354
O          -0.96564804989375   -2.08202501385675   -1.55195398820528
H          -1.17465606798973   -1.13341280923811   -1.41288981428399
H          -0.01602150473852   -2.16419147104089   -1.41549263220625
O           1.34670615467725    2.75350955784848    0.36511829828110
H           1.84229420681606    2.17443547701843    0.98118643274531
H           0.41631094426690    2.65977500915641    0.66839876128617
N           0.95939267302207    1.18892973850599   -1.66180685525467
H           1.46784900997612    0.29734479515954   -1.46836557132332
H           1.23015468852555    1.92362148020722   -0.91260538227367
H           1.11023033823757    1.52116661521371   -2.60779314579242
