    26
        -50.45196656  Gyration_radius:  2.49354859935 Dipole_moment: 4.653
 S          -1.00306318359380   -0.56629608506525   -1.29331669337866
O           0.40605410981138   -0.59461463792257   -1.61833345948388
O          -1.58988111155076   -1.82547692774384   -0.97448094868022
O          -1.19096216752172    0.40856316733809   -0.09967536494191
O          -1.77180955399793    0.13669123727036   -2.40668253337452
H          -1.12555283891516    0.85409357548390   -2.75221746551903
H          -0.68384751458277    0.04030768509661    0.74511976870776
O           2.18706313377957   -0.97628704772191    0.33205252026552
H           2.61060654948860   -0.11272416899427    0.37736864021246
H           1.65010976160286   -0.96686676775541   -0.48430999698362
O           0.10572074040152    1.72073755640013   -2.98009369819096
H           0.71666537364472    1.00128592342486   -2.76864138096621
H           0.13077899424469    2.32883658239317   -2.20265495061112
O           1.72381541417893    1.78042284854017    1.37368933781202
H           2.01745699604079    2.35906615794944    2.07925205576030
H           1.10083151277162    1.15151278787666    1.76501310217331
O           0.08490576068848   -0.52404322979520    1.83699901411791
H           0.91585741900200   -0.83265305568157    1.38700084617933
H          -0.45051401895032   -1.35905857774197    1.98822506965341
O           0.04067868036871    2.85142619617523   -0.56981024162050
H           0.78871161288637    2.60887286006299    0.00070175851004
H          -0.67182774934798    2.25196305392552   -0.31116855263962
N          -1.34854080666290   -2.72810364101062    1.75009114969463
H          -2.23500417752092   -2.81539145073631    2.23076895691933
H          -0.86172929206727   -3.61171482239231    1.83561851685991
H          -1.54652364421177   -2.58054922939094    0.75948454955088
