    26
        -50.44348952  Gyration_radius:  2.51225642793 Dipole_moment: 9.025
 S          -1.08268623229705   -1.90982745011161   -1.36568138339563
O          -1.44458651418909   -1.89037571549630    0.02776343324203
O          -2.05711662718697   -2.37376397375901   -2.28456414975543
O          -0.67056482168425   -0.42353851433668   -1.74210484903711
O           0.24143985013381   -2.64181926906928   -1.56011073861635
H           0.87870529030713   -2.26556562107433   -0.84338504336804
H          -1.13567295284650    0.21867189739796   -1.15739307786891
O           0.54289903071363   -0.06194630159166    2.17274179135572
H          -0.45445856836735   -0.13105701125503    2.13366584408478
H           0.80441455474258   -0.39286791489479    3.03285677083952
O          -1.66545707558041    1.56668490296593   -0.29900546941257
H          -0.80860225511854    1.88337769394670    0.07543748785924
H          -1.94945568963406    2.21607022666070   -0.94473437144783
O          -2.05207650688583   -0.15952468012986    1.91935689920275
H          -2.00577388348243   -0.94648156933853    1.34181833164433
H          -2.26724762794429    0.56216822762773    1.31651172273703
O           0.65090531516955    2.26716003384189    0.84757017837736
H           0.60897650398731    2.94811720582253    1.52160159476259
H           0.75824898478266    1.41538541112910    1.32480067379991
O           1.73819684609248   -1.52340738709760    0.13153644059289
H           2.02592412822051   -0.74126673829346   -0.40597463990058
H           1.21925030516183   -1.14860948695052    0.86473923808871
N           2.09291593632231    0.67670452990445   -1.36884761788656
H           2.87599447100384    0.89905632034994   -1.96844932745279
H           1.86460292138726    1.49640099766673   -0.81877199404535
H           1.29122461717519    0.46025420611685   -1.95137773439025
