    26
        -50.45272358  Gyration_radius:  2.41345452751 Dipole_moment: 7.999
 S           0.50981420762556    0.77347506621021   -2.03542819770046
O          -0.81760519652408    0.78602375815826   -1.41224521989494
O           0.85569126415772    1.96670738008869   -2.72847317580077
O           1.52623166634078    0.56266289276091   -0.81587564815264
O           0.67125069381211   -0.48560228661611   -2.78020258192691
H           0.01771302652976   -1.31048836418992   -1.86854018831899
H           1.34563531382604    1.22328067277049   -0.06798884043567
O           0.52006289093773   -0.45632415912722    2.44190344196045
H          -0.36685450622135   -0.58471272266857    2.07388940406219
H           1.10709599202680   -1.02211078173754    1.92226720652545
O          -1.68137445256270    2.16500790640112    0.52681179656242
H          -1.33597847719580    1.74533963267634   -0.31337048253451
H          -2.22115982349648    2.90642471555134    0.25084002581610
O          -1.90950520043049   -0.54568756467971    1.01993999543114
H          -1.87258692625788    0.42000582752277    0.87328219965531
H          -2.79516735349433   -0.73639424071048    1.33256136695114
O           0.95658932316880    1.93990454744007    1.26141399550749
H           0.04045921993776    2.23697779049228    1.13177548557570
H           0.89433579049123    1.17110902441307    1.86909582418272
O           1.91882826855140   -1.77473354480238    0.37288163913284
H           2.80617263844970   -2.11794345858800    0.26018204596935
H           1.89992691477356   -0.89920024280269   -0.08195958880704
N          -0.43271262491601   -1.88693259850954   -1.00829776892595
H          -1.03809747011027   -1.22420095382941   -0.49332072734369
H           0.36004792505705   -2.15918808415006   -0.40463139604263
H          -0.95881312449442   -2.69340022207543   -1.32651062143546
