    26
        -50.45713019  Gyration_radius:  2.43302904536 Dipole_moment: 7.220
 S           1.46480683982216    0.52021393083749    0.82255203282667
O           1.03708060094661    1.16053626265154   -0.41967619335099
O           1.16018941538521    1.29153859122884    1.99465929663367
O           0.67629575243744   -0.85510559271094    0.90292719799561
O           2.85035656832447    0.05811741385861    0.71940885713422
H           2.70545243059379   -1.02497472178710   -0.18439878392632
H          -0.26486713500508   -0.73768843742917    1.18814518374643
O          -2.16288178857507   -0.48773718092607   -1.27012719280580
H          -2.94615624455603   -0.46188385474808   -1.82104110518485
H          -1.94275127814541    0.47888684497461   -1.06747651353129
O           0.47786753756253   -0.71847575474852   -2.12508197555195
H          -0.45696648344631   -0.87063952136651   -1.90200881051816
H           0.70133218398655    0.10882148537646   -1.63339746751862
O          -1.50474897863474    1.92382021916300   -0.63641537085951
H          -1.68174201742181    2.08576553617101    0.31266704552839
H          -0.53375529831811    1.81618845749997   -0.66603143407957
O          -1.30229328844556    2.31628361288652    2.02427926591313
H          -1.19755637453365    3.20815001850831    2.35946971180073
H          -0.41357908775673    1.90576290640012    2.08373660841469
O          -1.88636886794522   -0.93801101188623    1.37041276982790
H          -2.12411793805398   -1.83340271692240    1.61526527819318
H          -2.12853269626960   -0.82008052510115    0.42854753693762
N           2.45237565503420   -1.86353864269906   -0.87360880951661
H           1.60294897643184   -1.51211003938036   -1.43920222740256
H           2.18353517243235   -2.65946037072111   -0.30375160094841
H           3.23407632410122   -2.09097691914885   -1.47985331978548
