    26
        -50.46972953  Gyration_radius:  2.43079876945 Dipole_moment: 5.156
 S          -0.81443264856690    0.71275281149961   -1.13877782523098
O          -0.57639433545856    2.12638735020778   -0.96927288490999
O          -2.06247827075994    0.35069130334208   -1.75753877370373
O           0.34063432050059    0.04150968361433   -1.76896047232668
O          -0.89443697673106    0.07020407570828    0.31095444161312
O           1.07896664138339   -1.94942010414182    1.71068195368295
H           0.41762057617786   -2.01859364707835    2.40181614483149
H           1.35909080229866   -1.01651383530265    1.70605958435922
O           2.23973072945865    1.59951512173466   -0.80679391494747
H           1.64114310553896    1.01284599687649   -1.31371234143902
H           1.84832893950278    2.47380509055575   -0.89107157266021
O          -0.11183168747627    3.03608488585954    1.47471424458630
H          -0.88692761268589    3.50168352453930    1.78970093049449
H          -0.30639578102722    2.78572775181142    0.54426604996393
O          -2.50470778858382   -2.03382181575374   -0.84606590201495
H          -2.91005734825378   -1.84004300711677    0.00162544138585
H          -2.42884270563716   -1.14998471021387   -1.29416517987345
O           1.31584380378798    0.77277364490026    1.50892707046150
H           1.84358317624132    1.04802987015310    0.71412587004647
H           0.94950353808849    1.60931788233074    1.84753985773661
H          -0.07098322460479    0.34865040077300    0.79649654538098
N           0.12121135424375   -2.32919042659780   -0.80342723288998
H           0.51906008667640   -3.10345343499008   -1.32431532858559
H           0.51494193420915   -2.27598693075296    0.16455816886664
H           0.31535324279578   -1.39205852388934   -1.28917496224952
H          -0.93752389102367   -2.38091295810511   -0.76818990262939
