    26
        -50.46414203  Gyration_radius:  2.44080151357 Dipole_moment: 3.682
 S           1.15797096956477    0.20199153683806   -1.21229645698518
O           1.25075417439257   -0.81744531561079   -0.15600837998016
O           1.25002319243137   -0.41535893716982   -2.52434042352770
O          -0.07312899234187    0.97459930080457   -1.04686073511196
O           2.35891929408849    1.16467158660623   -1.07028934144055
H           2.28366975155688    1.67019103055030   -0.21053286056878
H          -1.48250840318441    0.04868550880448   -1.33479982251693
O           0.12502134919846   -0.66371034050388    2.16555017415846
H           0.78000630496286   -0.90039879038778    2.82317528304785
H           0.58138190217644   -0.72722137403746    1.28520420809137
O          -2.11635146465469   -0.70070500124342   -1.29454078635201
H          -1.13511232392703   -1.80412173217503   -1.57388185254453
H          -2.41491210271586   -0.71714251930500   -0.35671399237929
O          -0.48093974569846    1.89915178246244    1.39556030557380
H          -0.46228561476734    1.63598694033498    0.44938020457794
H          -0.33033625325551    1.07215650835051    1.88484261034129
O           2.04331144272957    2.56936743013062    1.09292803842094
H           2.12457938652740    3.49033194602898    0.83782514878598
H           1.08423025016943    2.42370059355814    1.31346629023850
O          -2.50532964034977   -0.48441568111290    1.34797752819672
H          -1.65101612172437   -0.73026124761742    1.73700912385366
H          -2.57822117179790    0.46726128376645    1.46784029163271
N          -0.20210216813716   -2.35295700435880   -1.73098731453052
H           0.31160524021289   -2.34732439850750   -0.84005160049591
H           0.39711005883876   -1.68052488900487   -2.31531555497407
H          -0.31633928455980   -3.27650821717448   -2.13414010564733
