    26
        -50.44908158  Gyration_radius:  2.58095821842 Dipole_moment: 3.345
 S           0.97006796247308   -1.16428830738420    0.66326524882232
O           0.08729362178241   -0.28767284499289    1.40284711024301
O           0.32901745105247   -2.27590202000531    0.05129155981317
O           1.71797825310060   -0.30227343870764   -0.39307578579948
O           2.12161001331184   -1.62338073171629    1.55017976953213
H           2.71629073916189   -0.81360214700731    1.69949024521814
H           1.06718745540254    0.05021141823106   -1.09595969722429
O           1.29171501366409    2.00006698970460    2.04912783790117
H           0.77514993947705    2.68744456980237    1.62340740943226
H           0.76721855346248    1.18055813438322    1.96653999128739
O          -1.38619990377350    1.47164965096287   -0.03607301408486
H          -0.96602062581307    0.87210366236378    0.60497660655926
H          -2.28139931273635    1.08368039439765   -0.18587425682649
O          -3.54103324647338   -0.03563619340826   -0.41363290074197
H          -3.02064548854565   -0.68042105454935   -0.96418369727412
H          -3.76930277392162   -0.49978646674042    0.39330312036089
O           0.05432618162967    0.70946967864312   -2.01681268425418
H           0.42138414269263    1.47677474750898   -2.46084551460524
H          -0.58621674337646    1.06414087525905   -1.31489005156385
O           3.48410147563814    0.52776591070098    1.66632722301397
H           3.64142527900735    0.65463079978863    0.72623529242745
H           2.81582408395372    1.19775857919798    1.92613439701408
N          -1.89242364998884   -1.68597153652980   -1.74178997228093
H          -1.36670913520268   -1.09340763589168   -2.37467237211386
H          -2.22389960515074   -2.48222893545565   -2.27221775278189
H          -1.22673964082976   -2.03168410855508   -1.05309808204844
