    26
        -50.46586023  Gyration_radius:  2.59183390714 Dipole_moment: 7.216
 S           0.42100149549061   -0.53302023418817    0.96612787253592
O           0.79013514610739   -1.24038089366943    2.16204164163255
O           1.21433080227469    0.67641685051967    0.74262912507405
O           0.75479237525677   -1.44139026474482   -0.27946442092309
O          -1.00936248724332   -0.24350621577649    0.87977054140066
O           1.97000604930186    0.58377903688849   -1.74864335664223
H           1.77222235639605   -0.32976997734776   -1.97515538149268
H           1.85187065486208    0.60660054093139   -0.76692925243180
O           0.44659020347560    3.15718282742269    0.53746506100491
H           1.19137877859011    3.66124319367244    0.86962087380255
H           0.65271356673937    2.21293545491166    0.75164193247981
O          -2.00764441008587    0.76118975460007   -1.26283578719452
H          -1.60299532687953    0.33733950475946   -0.45289372727835
H          -2.84231230239993    1.12399901844533   -0.96110806127416
O          -0.28006194430129   -3.58391399169233    2.69878354718498
H           0.45958371327348   -4.17948511134806    2.82932149499780
H           0.10967711776619   -2.68195492616446    2.64321106356099
O          -1.28695975978058   -2.87139467930494    0.32154075059566
H          -1.63783987165042   -2.01532772995302    0.61028061496652
H           0.04593948639113   -2.13552890695894   -0.18516972293376
H          -1.04354696741123   -3.33700807654229    1.15024284107204
N           0.00193720726799    2.31874389223552   -1.93784379661776
H          -0.08985483367110    2.92880270708673   -2.74173474533148
H           0.81567337682333    1.63920261584657   -2.03513527658921
H           0.17312785396505    2.84928059242841   -1.04421778962494
H          -0.87040228057704    1.73596502794066   -1.77154604199759
