    26
        -50.45971458  Gyration_radius:  2.42861516808 Dipole_moment: 6.565
 S          -2.09430567742581    0.42173260803466   -0.62085044620095
O          -1.91465227368499    0.10338367683847    0.81071945667996
O          -3.39854693133869    0.87180010015379   -0.95604318175897
O          -1.02363952313709    1.37866665821616   -1.01962729389537
O          -1.79535880952011   -0.88218460852042   -1.42657621713442
H          -1.02332195982248   -1.38539201795911   -1.04465803775243
H          -0.42519729121634    1.94625029863717    0.21706663125592
O           0.25427693498524   -2.19147365077269   -0.48272318960775
H           0.13566047060701   -2.14677187927844    0.48173170414650
H           1.06489946231902   -1.68725637958993   -0.67109411786111
O           2.29829277214860   -0.41385735357228   -0.94087831339199
H           3.16661002669521   -0.52731794804179   -1.32883932126539
H           1.71366929097489   -0.04992855297523   -1.66215719641756
O           1.79714533154665    0.37664848343656    1.63827788977039
H           1.25186569320245   -0.36786445253655    1.94413693631376
H           2.08203375864431    0.13911757650094    0.73606324749530
O           0.59285005948322    0.33141072800509   -2.77832591271419
H          -0.03975085136072    0.82878904748993   -2.20894561800129
H           0.08912812861842   -0.41523452095502   -3.11287813614015
O          -0.25387713561138   -1.42037187466530    2.06713059397843
H          -0.93682400719502   -0.86546899396277    1.59975055971129
H          -0.72471877853457   -1.91105843978089    2.74140496485795
N          -0.22910374844734    2.00802257021340    1.28085165691397
H           0.67813409861142    1.48551513765937    1.48469391602712
H          -1.02081386097645    1.42080752529001    1.60332028158085
H          -0.24445517956581    2.95203628214069    1.64844915341342
