    26
        -50.45229807  Gyration_radius:  2.45669165893 Dipole_moment: 4.558
 S          -0.70557389416183   -1.37664044405726   -0.06466241738794
O          -1.57726302837372   -0.51130558072257    0.69391280060509
O          -1.12164352451341   -1.66573460504369   -1.39514236863506
O           0.70729218946185   -0.73256810217740   -0.08850429135719
O          -0.47208435455828   -2.68684446554431    0.68713962126579
H          -0.00942534425728   -2.47012750901641    1.56490107951321
H           0.70265207627079    0.24249587470864    0.22293444831816
O           0.61619336214612   -2.02322245602102    2.89217965119294
H           0.22089088823162   -2.49788163899278    3.62685467258181
H           0.34486626020331   -1.07027804445689    2.99414293073757
O          -0.92651665918238    0.83658632169368   -2.48065564174752
H          -1.14920343966993   -0.08456549612145   -2.27648794807158
H           0.03108647202431    0.83273458751676   -2.66735256616361
O          -1.69298124312677    2.06706509693435   -0.26911551492283
H          -2.08654746136204    1.29060635614949    0.15233026046871
H          -1.52630241624942    1.78275575614239   -1.19866732576586
O          -0.34719880177438    0.40476992064482    2.87750773568981
H          -0.98570298880392    0.15605821456289    2.18160225822089
H           0.20909928092906    1.08244675611548    2.47717197154078
O           0.69023546194894    1.71613742141796    0.58437545280916
H          -0.25537977985560    1.96877216849855    0.30209500478221
H           1.27596628880634    2.18110311210144   -0.01675030084372
N           1.80231928198168    0.31513425602905   -2.70589054968357
H           2.68351891903776    0.81331047298030   -2.68015183291187
H           1.81527193034330   -0.28286291634366   -3.52318381309182
H           1.75643053448367   -0.28794507701556   -1.89058333712072
