    26
        -50.44920722  Gyration_radius:  2.46144442905 Dipole_moment: 3.915
 S          -1.60569008130899    0.45554075877680   -1.15715830867189
O          -1.84639861519578    0.76071990737286    0.23682241006416
O          -1.49442326421268    1.59022021366087   -2.01343982953973
O          -0.26427771507805   -0.35676338188717   -1.24598046498009
O          -2.62737543892257   -0.55155924588135   -1.63198778989062
H          -2.82026710186037   -1.16485612004862   -0.78769124121759
H           0.46153055233245    0.32904950475692   -1.24097317998083
O           1.12713359201179   -0.56787116812879    1.82178377967193
H           0.79301708717745    0.33707712523172    1.82599934594235
H           1.86044447998694   -0.56818879555337    1.17037199224336
O           0.14599487775271    2.08803223359207    1.29244768917942
H          -0.14626590868495    2.82252341246220    1.83475450572316
H          -0.66529166368310    1.62678116168046    0.97910793246012
O          -2.87731057912681   -1.77564328820519    0.51721989065298
H          -2.86976266912465   -0.97490354177939    1.05513292370063
H          -1.96517773246985   -2.17714441585742    0.63395835942177
O           1.13793138871626    1.80823351832636   -1.20782317928560
H           0.97019170685492    2.06533773765060   -0.27898026793558
H           0.41453849058081    2.18621386729629   -1.72743122238156
O          -0.36609472923816   -2.44550574589451    0.63800261505787
H          -0.12738876690302   -2.15040409773734   -0.24650639339489
H           0.12902575190779   -1.83946879276865    1.23722216708572
N           2.99644323099305   -0.41002887562803   -0.21080338568633
H           2.75447941487706    0.43666522394707   -0.71295329535983
H           2.92039649392015   -1.18556345341307   -0.85662558567161
H           3.96459718869968   -0.33849374197018    0.07553055282067
