    26
        -50.44750107  Gyration_radius:  2.54654549224 Dipole_moment: 5.568
 S           1.34627836231322    2.34388039914525    0.87358729171607
O          -0.09788006528442    2.30740976734683    0.94864915072642
O           2.00223146299638    3.36421411608482    1.59999218221750
O           1.84400228142044    0.93218702772344    1.32627023480136
O           1.78514780833256    2.39020603243789   -0.60002760259946
H           1.39173375970121    1.58261873930576   -1.07431513159338
H           1.05338223235647    0.41240120413628    1.65585847119024
O          -1.70641960489692    1.40189844494550   -0.87859715585481
H          -1.16667664852807    1.80127615473062   -0.15198144667408
H          -2.16312775821677    2.12814780009686   -1.30467266367065
O           1.52009342778071   -1.65617402824612    0.11882655899101
H           2.35498284882431   -1.24059148663884    0.35113545635756
H           0.96652383257995   -1.58803826085108    0.90863281927712
O          -0.11688460787168   -0.54330737146437    2.12976172225640
H          -0.48521543871538   -0.15612670110198    2.92506957739527
H          -0.90193025065584   -0.68072961490570    1.50563772155992
O          -2.05209553829100   -0.94807324692728    0.47576939955563
H          -2.17043853872195   -0.10677455637290    0.00828666624218
H          -1.71024476762345   -1.57890563161913   -0.20228938148786
O           0.68564162673896    0.32174474842673   -1.60673648716009
H          -0.25513104975756    0.53378385151967   -1.46440293389231
H           0.90979933980365   -0.43952467251819   -1.03502363729091
N          -0.90829296510059   -2.50093230221104   -1.45033657899604
H          -0.84511765983737   -2.03157683805070   -2.34560060040693
H          -1.31752079024344   -3.41338593478512   -1.60487643147149
H           0.03715871090034   -2.63562764021036   -1.10861722118163
