    26
        -50.44871673  Gyration_radius:  2.48178692659 Dipole_moment: 4.382
 S           0.14417576223664    0.09164036660673   -2.14725837828381
O          -1.13486943226089   -0.21781364671634   -1.54185589019413
O           0.09892361448368    0.86136858653298   -3.33728337201567
O           0.99161488595148    0.84293197584780   -1.05579408790411
O           0.96210768183362   -1.17338831877872   -2.32353547374492
H           0.99847931829649   -1.63581062643890   -1.38624110894760
H           0.50477090636998    1.63711547174437   -0.72657650514996
O           0.63546110436987   -0.29048785280626    1.92523603753218
H           0.45906991198319   -0.64816889786505    2.79664073703180
H          -0.23289109102370    0.06396645710911    1.58189211540845
O          -0.02520599132091    2.95084989561258    0.14879245444438
H           0.16086341784151    3.78988498241022   -0.27597280957114
H           0.71733029659938    2.77282009982527    0.78471074548911
O          -1.55918357974365    0.70390622113840    0.91141440311807
H          -1.52958259420189    0.33400191375440    0.00440166236812
H          -1.37545440066911    1.64487486219745    0.80495002432298
O           2.02910395623134    2.00236581815682    1.48999142870007
H           1.61004504400546    1.15912434332580    1.75665860512365
H           2.61342583484514    1.76780723030676    0.76487124147837
O           0.91305750230718   -2.20010806990244   -0.04240981485179
H           0.97616328750224   -1.48796011659871    0.62159974734070
H          -0.03065260847118   -2.51254794575126   -0.00627016793155
N          -1.72191516380645   -2.65933144363691   -0.11185820161697
H          -2.30313731302146   -2.45008315832892    0.69026136946590
H          -2.10656193387770   -3.47430275176861   -0.57189658511736
H          -1.79513839650657   -1.87265541596472   -0.75446817644107
