    26
        -50.44582059  Gyration_radius:  2.5506813423 Dipole_moment: 6.364
 S           1.89992625951988    0.50829525685075   -1.23130411268205
O           1.36612686105543   -0.55654436812318   -0.40184385098621
O           2.63471407747524    0.08011928534573   -2.36321356909073
O           0.70346849587279    1.41948490893074   -1.64476686651321
O           2.73313578490560    1.45596907504817   -0.36787080509942
H           2.07296524819107    1.98630105830046    0.20432311628895
H          -0.16469200599552    0.91079959930913   -1.64714186677541
O          -0.52747199730672   -2.21443419449424   -1.40314484821824
H          -0.86300015255041   -2.66198259951237   -0.60037447230235
H           0.33932216497841   -1.85571068236182   -1.14945973369355
O           0.96909957382669    2.79328152245407    0.85957566310644
H           0.73004609586476    3.42857977440260    0.18092096207150
H           0.14974349187412    2.21811922435916    0.99980918040563
O          -1.53072174981425    0.13653594940240   -1.67536601490050
H          -1.88600436906166    0.20349241363437   -2.56377056477886
H          -1.22074111212570   -0.82085810080919   -1.57286997882812
O          -1.30706739789103   -3.00605959770364    1.08029389323385
H          -0.70410086681351   -2.36808437316496    1.51092198875074
H          -2.18850752840761   -2.81732784823428    1.40461395562195
O           0.38601959313156   -1.07643032342005    2.00094314021162
H           1.12068721365832   -1.30376263037497    2.57304384658164
H           0.78024010605115   -0.87156906056676    1.12489717844089
N          -1.17998807035357    1.28959819964443    1.14310129866906
H          -1.96808962091346    1.67311826958338    1.64833445448615
H          -0.83896683651112    0.48023444494090    1.65243822420813
H          -1.50614323854942    0.96883480674843    0.23790981185471
