    26
        -50.46586019  Gyration_radius:  2.59192424453 Dipole_moment: 7.214
 S           0.04035624176469    0.55711696525895   -1.04045376457115
O          -0.24285233688733   -0.97010964846169   -1.31462121768950
O          -0.06096301371307    1.27300483729701   -2.28303902892089
O          -0.94603802765876    0.97585971392137   -0.04600532389043
O           1.39053190166976    0.56910891509614   -0.47572263954212
O          -2.29816715285758    1.21486652624402   -3.66765910321005
H          -1.45279430036270    1.37818581845699   -3.19105333459281
H          -2.04958063256641    0.91751942538916   -4.54428639364684
O           2.22786586318480    1.47986183753640    1.81656933357142
H           1.84143244611395    1.27826212148243    0.92772233086907
H           3.13115506641482    1.75141459834019    1.64501663148319
O          -1.19206545838845   -0.30575165997087    2.16617365929760
H          -1.10289172804749    0.15549147109837    1.28373090662169
H          -1.64894106550528    0.32239956974666    2.72832058740580
O           1.90969599551312   -1.89699234647256    0.18379167017505
H           1.20840419300807   -2.36964593893574   -0.27421019996172
H           1.84218863008834   -0.97959543319494   -0.17956397566387
O          -2.72609545420338   -0.37958814121710   -1.55869475344768
H          -1.22307471313350   -0.93750923654963   -1.49153577430038
H          -2.50115912752026    0.27882150162275   -0.88397644981270
H          -2.79184511782107    0.12856327024840   -2.39546352583013
N           1.33951466982021   -0.90677995719662    2.55311128154156
H           0.29375084269510   -0.72565068153146    2.51009346911209
H           1.59512463777436   -1.45951326599177    1.67988221234221
H           1.80306647737439    0.03297743777419    2.44688257399841
H           1.61338114326521   -1.38231772000177    3.40499083864730
