    26
        -50.45355143  Gyration_radius:  2.5212399514 Dipole_moment: 8.295
 S           0.58458024117255   -0.98842415638613   -2.19076558802812
O          -0.04717605928893    0.35329177951126   -2.25531041403976
O           1.38508361148223   -1.28937662557909   -3.32508109013024
O           1.31716819589682   -1.08132585489494   -0.90298220561744
O          -0.58010029318268   -2.02421457427746   -2.10169122094503
H          -1.08673976018619   -1.85942562229366   -1.27442387573494
H           1.77802843839661    0.35039716413644   -0.56677338709332
O           0.31855251266987   -1.91911882671311    1.41582875195495
H           0.80930608667406   -1.73179688094113    0.59021931732758
H          -0.60493738246983   -1.98638925534452    1.13756590528731
O          -2.07417403890849   -1.52634096868943    0.05497152669185
H          -2.95820161397987   -1.81477569467096   -0.17741392528534
H          -2.06638430266039   -0.53112300386125   -0.03520890328771
O           0.08370082060962    2.20819536905976    1.33113264494324
H           0.22035099523287    1.44770501286306    1.96440770292004
H           0.04658829916322    3.00327079159985    1.86393216608185
O           0.48403539281241    0.20278400959814    2.93182973463495
H          -0.11474804173673    0.01356441007133    3.65540485447800
H           0.50144153980394   -0.62566813152485    2.37470501033711
O          -1.82137167418566    1.01449362798671   -0.41034941757551
H          -1.26590219658894    1.50079164603623    0.21564826154089
H          -1.25558417311675    0.83964601099445   -1.19593398184923
N           1.66287731313279    1.40869100664202   -0.71521117440403
H           2.52454676151494    1.87495287082751   -0.97320060430437
H           1.19235479916979    1.84313047765224    0.10546821002925
H           0.96670452857085    1.31706540819859   -1.51676831793225
