    26
        -50.46103928  Gyration_radius:  2.54423596323 Dipole_moment: 4.800
 S          -0.67640879103160    1.31961719623516   -0.48694044801750
O          -1.33740339800303    0.19789460639411    0.17612495286612
O          -0.07253025426336    2.23893242491502    0.44470528471258
O           0.45548194089539    0.69371731444268   -1.38435738789554
O          -1.55371634231393    1.95211737257337   -1.47452247888811
H          -1.53490387095084    1.02677761352630   -2.53057340894839
H           1.16242949142344    0.27219853375337   -0.78450519638161
O           0.09522151797751   -1.83528258584555    1.18630299758377
H           0.23927421838233   -1.69225712738783    2.13953296678438
H          -0.52916233519589   -1.13033141659533    0.92770372670667
O           0.85073495593391   -0.83720627876604    3.62015492728601
H           1.67508222791680   -1.15205070105193    3.99420943981694
H           1.04611284934653    0.02291730388865    3.20486800986593
O          -1.76581449454413   -1.72067631733215   -1.51474056246103
H          -1.75909503888300   -1.02577979029433   -0.80779706812637
H          -1.10664615330952   -2.35962777209340   -1.23006411052547
O           1.61761243578286    1.40698152318372    2.21981004162073
H           1.99432401742048    2.19883464356026    2.60661731229974
H           0.91656904105567    1.72764972621756    1.59376015583500
O           2.08986436909175   -0.42321003229232    0.21036534309117
H           2.18380792885939    0.21865284889210    0.93308082388499
H           1.45832289331676   -1.10758603386775    0.55494233948471
N          -1.40335352096347    0.19515209854105   -3.27104951877695
H          -0.43835562451581    0.24068002168445   -3.58775030601772
H          -2.05888110461950    0.26156589023375   -4.04300638855052
H          -1.54856694848136   -0.68968107267795   -2.69687146697690
