    26
        -50.45178627  Gyration_radius:  2.46191749596 Dipole_moment: 2.952
 S          -0.45860046933524   -1.13880012344755   -0.59485782937654
O           0.26845301825424    0.11002438715432   -0.70815429023378
O           0.34587536928025   -2.28043114127442   -0.32088153177030
O          -1.54194557729557   -0.97990861974194    0.48666980404862
O          -1.24885511103774   -1.38604294475471   -1.88141508201298
H          -1.96199615076010   -0.66913757508157   -1.97501727359555
H          -1.50670175321716   -0.09422306283428    0.98368705570975
O           1.17044512254644    1.15992926289530    1.78890499368474
H           1.33332772510129    1.24561419564072    0.84389928613257
H           1.41425729388207    0.22144959742899    1.99172632022252
O          -1.39038773385350    1.19059662528221    1.81084200017883
H          -1.70810552114779    1.02207645496401    2.70013056598450
H          -0.38066848662995    1.25715800531472    1.87391738334341
O          -2.93298707389656    0.51272092659058   -2.08473674521209
H          -3.03694705908035    0.79126182430925   -2.99724834284508
H          -2.46192007809505    1.25300606876936   -1.61188740510999
O          -1.39917462117882    2.19298427055163   -0.80758003471561
H          -1.63399907427428    2.24848064124817    0.12671980545249
H          -0.65152160459740    1.56544747660150   -0.84208741721689
O           1.78609541985913   -1.40879392732535    1.84956800181163
H           2.58337682704222   -1.28451390094154    1.30443689224163
H           1.18722969650872   -1.89017294498877    1.25894834853611
N           3.10760911361068   -0.89785149426314   -0.52314444007022
H           3.09040262827878   -1.84972615532086   -0.87045837676407
H           3.82060459048555   -0.39684745703137   -1.03983629657233
H           2.20613350947025   -0.49430038955183   -0.76214538174240
