    26
        -50.45054553  Gyration_radius:  2.61055625436 Dipole_moment: 2.905
 S          -0.24229527610852   -0.33006593899067   -1.50469974173323
O          -0.26513581525992   -1.15687861287529   -0.32421028040384
O          -1.50281015122454    0.25722628978156   -1.83951419257870
O           0.82543914735837    0.77797403637754   -1.31430897331981
O           0.29436803985565   -1.09639797131111   -2.70586214817731
H           1.30443904886367   -1.20753553974965   -2.55812868098732
H           0.96774351506177    1.03200164610426   -0.33525376962879
O          -2.61343118383416    1.40979332759599    2.01788350539357
H          -3.00428113985985    1.12506615055179    1.16055595886452
H          -3.29034421967606    1.25606153059508    2.67911111464582
O          -3.65318480493316    0.57195821676317   -0.29936881509325
H          -2.87949111344684    0.36038977763351   -0.85956936821411
H          -4.19345306361629    1.16636294409058   -0.82355111352445
O           2.76852918200943   -1.15211424828295   -2.20485251461259
H           3.00670618645212   -0.23348936531454   -2.35322201294412
H           2.77342332292353   -1.28196836810753   -1.20327613742454
O           1.16572888501306    1.42714693147019    1.11812303545003
H           0.77904412276102    2.29382268525590    1.26037452283681
H           0.58862818604761    0.78041860917644    1.64022233714152
O          -0.48298640332227   -0.21757461121223    2.20945638059162
H          -0.57117667326216   -0.76282425068188    1.41058804402568
H          -1.28355279752119    0.35120196927404    2.23295507021315
N           2.49159515096771   -1.33817825638710    0.39949842811926
H           1.48448502985965   -1.48188604228683    0.34944078728648
H           2.64370587759761   -0.46590881039690    0.89214084683469
H           2.88830693730301   -2.08460208908078    0.95546773723405
