    26
        -50.45402901  Gyration_radius:  2.47131074007 Dipole_moment: 4.839
 S           0.82469600260179    0.48461475005584   -1.37770370935438
O           1.77597234367501   -0.09721945439757   -0.45440782467903
O           0.42806995592053   -0.37417927849039   -2.44434565086185
O          -0.41558484063039    0.92669987397645   -0.55842538400059
O           1.33868323031681    1.81047601788008   -1.91497329981666
H           1.29129426634348    2.48688863936310   -1.14066659784721
H          -0.87627963590363    0.08550397961374   -0.16229330597816
O           1.57774902617677    1.40254380960561    1.76823849455911
H           0.77004989084605    1.04624084627637    2.17847933396318
H           1.80926699986117    0.78975558531837    1.04811443607197
O          -0.81997079424877    0.32974736438412    2.66213016149756
H          -1.51712020638481    0.88695764766648    3.01031667393134
H          -1.21711962569464   -0.22047641692936    1.97177282225652
O          -1.42737895436881   -1.17660528431373    0.37775024788481
H          -1.74889587068706   -1.58969423269258   -0.47774829568308
H          -0.62294873762351   -1.70100270091709    0.61687494232891
O           1.02422763094800    3.31379961099343    0.08761068855349
H           1.30602591331944    2.70307899902405    0.82764440306425
H           0.06574941473372    3.36034347688989    0.13450613535409
O           0.93901078221637   -2.21685319292754    0.92723044198328
H           1.39442350576826   -1.56659685975978    0.35662904521479
H           1.24030618528083   -2.04489195280202    1.82259877762294
N          -1.83583654291289   -2.10844803099503   -2.04933470963776
H          -2.63918231034227   -1.87681477092672   -2.61966509976269
H          -1.62289428097858   -3.08722987404320   -2.19651798400293
H          -1.04231332825011   -1.56663856191026   -2.39381478268368
