    26
        -50.46586018  Gyration_radius:  2.59216920048 Dipole_moment: 7.215
 S           0.21571193837955   -0.01797493184709    1.16041922460763
O          -1.12812941560746   -0.80259744604196    0.90261737912499
O           1.23413258988593   -0.83886272349863    0.50380444358526
O           0.06520980370128    1.26907409608142    0.48356568446300
O           0.41226489710439    0.10186651565427    2.57953703323111
O           2.91263341890675   -0.21265710548699   -1.38692079560246
H           2.32999616815447   -0.31941000075118   -0.59367937605941
H           3.67195812258188   -0.77414336400700   -1.22172706797974
O          -1.39392708358026    1.30015296061784    4.07192777730910
H          -0.61887936061850    0.91733187062358    3.60159884030756
H          -1.62187237696880    0.66809863907064    4.75543137247600
O          -0.06441542295619   -2.49043185197785   -1.03622929534858
H           0.47776934496311   -2.00549258312978   -0.36608437534826
H          -0.96309650821362   -2.39320835927837   -0.70770843763395
O          -0.56726993880909    1.37075301779442   -2.00363961892665
H          -0.30030786450747    2.25618645656303   -2.25677017180743
H          -0.35709270384318    1.30716876395774   -1.02838561310164
O          -2.39841108388162    1.31616411712559    1.58930762414137
H          -1.79051733915260   -0.11052856250285    1.17753626956619
H          -2.24535176536166    1.41049437581253    2.55388854715167
H          -1.63810590114596    1.74926014388671    1.17258619875968
N           0.75408626188442   -0.74862431595732   -2.82950888029036
H           1.71697663468764   -0.56584228184988   -2.44382794251334
H           0.18330641112265    0.12248510160294   -2.62054683714642
H           0.76627427036199   -0.97337799155259   -3.81751452468325
H           0.34705686291699   -1.53588453090264   -2.23967747826906
