    26
        -50.44745106  Gyration_radius:  2.44175364937 Dipole_moment: 4.418
 S          -0.51006869514238   -2.04010435770302   -0.03982700132098
O          -0.68289081035569   -1.06439972502245   -1.08892416450356
O          -0.70167721240048   -3.39529114746400   -0.39994478605511
O           0.90434369709855   -1.81993779536514    0.57981427574897
O          -1.43246336592353   -1.67334045856463    1.14453639695796
H          -0.93050074564302   -1.01405847765072    1.73235632728995
H           1.43931326511890   -1.18319025284783    0.01947662731084
O          -1.09393679569810    1.55953898106860   -0.57658036073511
H          -1.02229372859486    0.62438393639054   -0.84207283952187
H          -1.80794096736060    1.57721807747286    0.08540546417348
O           2.34228079902387   -0.18282911508679   -0.80359862045314
H           3.11452601279048   -0.63271693368730   -1.14989127238873
H           1.80706555894444    0.15066393878749   -1.60287790357221
O           1.04650566748532    1.55583037514196    0.97889668611261
H           0.29213234468618    1.73150006386660    0.36324737899273
H           1.69983024113949    1.07255235790582    0.45778785320669
O          -2.72239812813678    0.93685482314410    1.55115993392253
H          -2.07345154034995    0.95439814037781    2.26250653589662
H          -2.89240642631207    0.00712421638369    1.37155874577115
O          -0.17266371160325   -0.02080397706429    2.61601879003161
H           0.49665896831510   -0.51580886213728    3.09189912113776
H           0.32765909144843    0.63059982995921    2.02761782710339
N           0.86542814199207    0.63285736675637   -2.79692318502879
H           0.44001942187294    1.51505291043117   -2.53534847494379
H           0.15387717462447   -0.08175082406432   -2.66928519536558
H           1.11305173297646    0.67565692898217   -3.77700816977672
