    26
        -50.44857905  Gyration_radius:  2.69770665069 Dipole_moment: 7.788
 S          -0.22445543299499    2.26031345034922   -1.83546420478715
O          -0.59087599002780    0.89964371021191   -2.15740995659614
O          -0.88287950409406    3.29002437032180   -2.54549350410903
O          -0.40803757798386    2.42202858377195   -0.29128782037548
O           1.30217975143530    2.42955700913644   -1.98385712656437
H           1.78090644231934    1.69800514873155   -1.49630985540159
H          -1.21417614681090    1.82812897634779   -0.06818639540641
O           1.21338914068689    1.06870797356312    1.57142577413414
H           0.67386087190323    1.79905584392794    1.24075985926953
H           0.61184203746904    0.29678907262368    1.60564200246757
O          -2.21628240833154    0.69990247802622    0.01701769198696
H          -2.12814735249796    0.45349824798812   -0.91356268295905
H          -1.68797565961785    0.02897697258925    0.52123640188283
O          -0.48088595754459   -0.97421880071580    1.09645924719383
H          -0.76703049143742   -1.81975953774702    1.50491737533751
H          -0.05015979626706   -1.21872760328505    0.24000481267242
O           2.57000989047899    0.64141328032942   -0.59513116532560
H           3.47620438243120    0.93839078164089   -0.49457208723001
H           2.12442110868216    0.77299948411653    0.29723826933625
O           0.66527958894863   -1.30938661319662   -1.27066498445003
H           1.54884614755681   -0.93576215674893   -1.16496334316846
H           0.16251639065468   -0.62266337355246   -1.74749509826586
N          -1.28837608182959   -3.41416193085198    2.04482813832938
H          -2.28916150183956   -3.43567292826200    2.19616855625127
H          -0.83533031780460   -3.70471648569556    2.90214223867577
H          -1.06568153349120   -4.09236597361640    1.32655784710693
