    26
        -50.45402909  Gyration_radius:  2.47129665189 Dipole_moment: 4.831
 S           1.12185519900334    1.24459415333347   -0.09092627642158
O           0.89922639323255    0.92623947146544    1.30367193375807
O           2.32258424791178    0.70721104666219   -0.64053102983073
O          -0.10571599652509    0.73663711786994   -0.89100537310658
O           1.04894824707052    2.74592353217704   -0.31782264573129
H           0.06133732308420    3.01725704008342   -0.21562393026840
H          -0.14214136669521   -0.29865655521617   -0.83277132629879
O           0.57661147661922   -1.65209918557027    1.89514554299653
H          -0.16734731252132   -1.66117128627041    2.50213106274742
H           0.85022823290458   -0.71712244374777    1.81265201959320
O          -2.58676120693693   -1.00147791425552    0.42225183572557
H          -1.84995520160605   -1.41324439492576   -0.05176152866597
H          -3.33530394549964   -0.99674184249754   -0.17559095439493
O          -1.73358362267720    1.31762896086042    1.68420131682269
H          -2.11344983905911    0.50426020008628    1.30765774210568
H          -0.77325047588202    1.16811314809914    1.73983665408422
O          -1.43471708155255    3.15516872139221   -0.13717769807622
H          -1.67020286992872    2.55193769893061    0.62492414362368
H          -1.75153640590649    2.71469617956049   -0.93006930684844
O          -0.11421462147277   -1.76699391324067   -0.65327696051954
H           0.16062952881721   -1.88355524049875    0.29016233125041
H           0.71242045679053   -1.97704376927090   -1.18095030245998
N           2.24734363552172   -1.92526398369895   -1.80404265936593
H           2.47675191174771   -0.98880727782303   -1.46895996980919
H           2.39184290412574   -1.93907612850438   -2.80565849953367
H           2.90840039943658   -2.56841334500640   -1.38646612136669
