    26
        -50.45219199  Gyration_radius:  2.54515540586 Dipole_moment: 1.784
 S           0.92831615949206    1.12436583986580    0.43377277857728
O           0.47575790081932    0.93340132491508   -0.92307493121091
O           0.42950324356259    2.31997923166788    1.04637152133830
O           0.50616171369051   -0.11212270714059    1.26643735772723
O           2.43971106876380    1.07812570867527    0.51479006217282
H           2.72346410185743    0.08084247400114    0.52271198561797
H          -0.52185631226664   -0.20660396606080    1.24422100707430
O          -2.17510554925351    2.50432208669829    1.52139511698321
H          -1.20568278527935    2.52027199648877    1.38028029683695
H          -2.37821110834462    3.27511863703566    2.05313420956825
O          -2.20145508405762    1.21625086488798   -1.07454766937643
H          -1.23876379751440    1.25014519800167   -1.21926453777170
H          -2.42288769917927    1.99499921909515   -0.55003691985308
O          -2.00883853786966   -0.21215531436749    1.12259224128964
H          -2.19657141557645    0.13122258347186    0.20949066106715
H          -2.29243708528052    0.52058402031129    1.68925037882687
O           2.95091912713230   -1.37142272060368    0.62491655610802
H           2.71515183403132   -1.85411147060772   -0.21782955257520
H           2.29716541738791   -1.64436513267842    1.27504722924958
O           2.12438591857953   -2.57118507674102   -1.54664229299343
H           1.14443113591493   -2.38741368185403   -1.51527005303062
H           2.44910409783676   -2.16097675212180   -2.34973952064108
N          -0.41213681240252   -1.76989791855194   -1.40783582051876
H          -0.92709862022863   -2.00697018985691   -0.56871458693154
H          -1.04681932110275   -1.86615685554262   -2.19058595409499
H          -0.15620758067326   -0.78624738894888   -1.34086956342312
