    26
        -50.46972946  Gyration_radius:  2.43076728466 Dipole_moment: 5.146
 S          -0.64734043579623   -1.33538997057720    0.51769932892982
O          -0.49114401635357    0.22264333363682    0.78173293692431
O           0.38168974308064   -2.00472891082727    1.27709599506949
O          -2.00486847014417   -1.62588637447178    0.89777923230493
O          -0.42776188901832   -1.48007258395182   -0.93580342330748
O           0.37554233725083    2.50590032690047   -1.21470486777486
H           1.09743586572483    1.96775165627416   -0.84319185385142
H           0.13109282000901    3.12512824512870   -0.52433493369880
O           2.19511593147908   -0.51998398883979    2.51146909675635
H           1.54452283980143   -1.13870087172951    2.11138645241441
H           2.02384123084676   -0.53094046702329    3.45337752820321
O          -3.29493286278895    0.49049087726877    0.14425472652499
H          -2.92560556534819   -0.38388753803219    0.43890750923198
H          -3.13892757827321    1.07944912352848    0.88541295799737
O           2.20763314615625   -1.59401048666545   -0.89754353880801
H           2.37547870514806   -2.15780399996575   -0.13678055121218
H           1.24329958807768   -1.67068050421904   -1.05145073065321
O           1.98695856344963    0.78860272138101    0.18591107701813
H           0.45676060613672    0.45627914060161    0.58679286871570
H           2.32101037192799    0.59439257564024    1.07978750504673
H           2.21154603589331   -0.02659687634654   -0.33471579506759
N          -1.53173908833383    0.66671728756862   -1.81612106634665
H          -1.05873732674653   -0.26825087850102   -1.58459108434272
H          -1.88174521743244    0.67655845891371   -2.76820560639641
H          -2.31756323641267    0.73521444002205   -1.10685748197932
H          -0.83156211829294    1.42780526430939   -1.65730627167185
