    26
        -50.44374954  Gyration_radius:  2.57563991204 Dipole_moment: 4.286
 S           0.24415259599312    1.48475318579738   -1.06741032315954
O          -0.94691205283369    1.36989713752647   -0.25187080507926
O           0.73202772645238    2.78610245805385   -1.32911391642972
O           1.36990346926707    0.66698254800603   -0.35004741113443
O           0.02540635704424    0.70970449764833   -2.37165191374714
H          -0.79375790177430    0.08807659150523   -2.21175548124134
H           0.98136125077063    0.08111934459063    0.35887164663883
O          -1.29148226245447    2.70297825141766    2.01520100572127
H          -1.14433409102701    2.30165498922405    1.13358765008153
H          -2.21808322680930    2.94716206685215    2.04628681064203
O          -1.93045158298183   -0.69236059007105   -1.70096645528134
H          -1.50603124943954   -1.49434248199517   -1.28355181843100
H          -2.12391430796185   -0.08394406511960   -0.97532190375628
O          -0.19260136448384    0.76442397979006    3.44699917732945
H           0.54000360736437    1.19852705012679    3.88805108703246
H          -0.68100718978016    1.48336713070382    2.97951301197144
O           0.54221884683765   -0.88874601719127    1.55627113928389
H           0.18009535136054   -0.29741567558289    2.27332995933175
H           1.31008917660537   -1.32544204739153    1.93212298454359
O          -0.48701878357691   -2.51253958755763   -0.50311958446533
H           0.31579050245290   -2.43494658979539   -1.06719380193139
H          -0.26842697501056   -2.06890765714050    0.32729656594890
N           1.66240092166698   -1.83911146770091   -2.04953504587980
H           1.23019926638045   -1.57444678095628   -2.92700888435755
H           2.48227659109336   -2.39370632079738   -2.26258168829998
H           1.96809532484508   -0.97883992992510   -1.60640203532006
