    26
        -50.45374103  Gyration_radius:  2.49845176831 Dipole_moment: 1.642
 S          -1.24239077445680   -0.53442079868355   -0.20057627586227
O          -0.24460403651929   -1.51493291688206    0.15122887981200
O          -2.10659515673534   -0.15603753121831    0.87743887795329
O          -0.52931525106931    0.71169320364935   -0.76654603502600
O          -2.06699483584499   -1.00685211330662   -1.38886632428746
H          -1.47201664166289   -0.90476404656101   -2.22031076244875
H           0.02672359599394    1.17080402990557    0.00124323945972
O           2.24474569197022   -0.56678544177598   -0.22271698190423
H           2.18229639801654    0.34370806133056    0.07800165839103
H           1.39365838772343   -0.99078655258622   -0.00479839555918
O          -0.51941582270837   -0.54722543910156   -3.32550439813304
H           0.39995173589042   -0.88871640434721   -3.16022543955473
H          -0.44963680844979    0.40899515181737   -3.25924216667371
O           0.69653944349636    1.70695755591324    1.16403216894925
H           0.71682286029200    0.93998154135325    1.81622463084139
H          -0.03520596354309    2.26165365543441    1.49433613114344
O          -1.81153271581963    2.32428983883464    1.88484120090537
H          -2.53049079380542    2.86782840613880    1.55974573355401
H          -2.01435803518550    1.40976489331719    1.60720626585552
O           1.93917641358299   -1.30771813856180   -2.77146022479884
H           2.16179347537035   -0.96497063055145   -1.87645933650721
H           2.07564354600753   -2.25567963135698   -2.73028454206421
N           0.39511430827686   -0.39701439594117    2.71788592884448
H          -0.41835861192374   -0.21623627855172    3.29248788253716
H           1.09727864552030   -0.84559698110624    3.29237927212026
H           0.11117094558952   -1.04793901716162    1.98993902246649
