    26
        -50.44147471  Gyration_radius:  2.63495304441 Dipole_moment: 3.675
 S           0.06135751556323   -2.74686815962588    0.39917790585244
O           0.43846247055482   -2.29997509564227   -0.92309926514222
O           0.56583135853548   -4.00882410287955    0.79758118654109
O           0.50350486210637   -1.62989968330425    1.40342397498024
O          -1.46500967175367   -2.71216634819769    0.54373950414999
H          -1.72430257770764   -1.74416814875501    0.43597762296851
H           1.23584816080968   -1.08318789677393    1.01530394507197
O           1.20560085280529   -0.12985857087513   -2.10514337109135
H           1.53185574094657   -0.32661482077756   -2.98476465133422
H           0.84866496489801   -0.97774869151939   -1.74409503715349
O          -1.22586346265365    1.13274901671010   -1.67664658358662
H          -1.02037640031209    1.99585795186691   -1.25382093424560
H          -0.36388812431567    0.76775969679674   -1.93378372529708
O          -0.58577234027055    3.27256140163089   -0.18588901016358
H          -0.26650685361353    2.68785972983400    0.55023640546498
H          -1.29631914433436    3.80318316991655    0.17608734409807
O           2.40222379671129   -0.18037326593218    0.31817202750004
H           2.04069298670123    0.02651016528790   -0.56910787305352
H           3.17643989035867   -0.72986757672866    0.17946326370384
O          -2.07785044455662   -0.24306652765512    0.33120188019811
H          -3.03361680444022   -0.16908710797503    0.30214692206569
H          -1.74109172785899    0.25119033559423   -0.48552131667954
N           0.12579298235918    1.48780785432134    1.70533533109038
H           0.12012171833855    1.67910273660199    2.69942982770875
H           1.05503137498699    1.16309637052824    1.46444211021275
H          -0.51083112385645    0.71402757755078    1.54015253614506
