    26
        -50.44147464  Gyration_radius:  2.63483744468 Dipole_moment: 3.671
 S           2.01724410765333    0.82855474508168    1.71758849037180
O           1.20356099420023    1.88316727466027    1.15542974797430
O           2.66537375089409    1.12693923145242    2.94098189902960
O           1.09659883296825   -0.42881148715971    1.86911163671273
O           3.03595853220417    0.34759676387647    0.67711083200599
H           2.48942116009682   -0.02569655768962   -0.08307820409947
H           0.14287475042264   -0.15737908446239    1.92039341349137
O          -1.41359596881712    0.33078018563956    1.94906196031200
H          -1.48276518481159    0.94156815532275    1.18554817673565
H          -1.55733772820174    0.85775655390743    2.73793927383429
O           1.62085206876317   -0.64881338876719   -1.19950057217854
H           0.89112890454007   -0.06673088822698   -1.59120876926609
H           2.19950055756430   -0.86648035256179   -1.93274112025818
O          -2.00869678158061   -1.35608406315680   -2.28319117656765
H          -1.66584764536881   -1.68302569733203   -1.41068903121783
H          -1.85176048861519   -2.05645212940156   -2.91748838389446
O          -0.30540343377197    0.71913487518018   -2.23309507987978
H          -0.98980991918688    0.02709243768163   -2.36980315104592
H          -0.66278992577566    1.29108031146621   -1.53489300736643
O          -1.09124852724072    2.17075509623124   -0.00484142748946
H          -1.32561002825623    3.09887916432394   -0.05535201129523
H          -0.17478128925294    2.13423174468083    0.36313289494601
N          -0.85096432983403   -2.10023040549182    0.03501232172075
H          -1.27920594644799   -1.54426564170717    0.76609078598746
H           0.10311461184521   -1.76839054033676   -0.06954098627332
H          -0.80581106399274   -3.05517629321146    0.36802147771007
