    26
        -50.45147847  Gyration_radius:  2.46551896411 Dipole_moment: 6.110
 S          -1.14349566729079    1.08608570340714   -1.80935439918725
O          -1.17269165618386    1.31079294137910   -0.37913951014098
O          -1.41914542058320    2.21223326509818   -2.62149931096727
O           0.23621792020513    0.45776232773759   -2.16200041887114
O          -2.08376874952520   -0.07962460445329   -2.15318894727088
H          -1.71304188754516   -0.85992594903258   -1.64088096451707
H           0.98736966632130    0.84808433367712   -1.61606788120423
O           0.77533675649973    1.95453462335463    1.37613892408263
H           0.72437259703504    1.16515547007529    1.95031632013242
H          -0.05180267554791    1.94119860797006    0.86513314393733
O          -1.96587946205102   -0.58008781171360    1.36580821035340
H          -1.82241614735066    0.19047824466840    0.78500516384373
H          -1.90688507978955   -1.34448969482226    0.78110508285582
O          -1.00977426125808   -2.02764423285895   -0.85984199385217
H          -0.88009904716268   -2.73416380528373   -1.49484116585013
H          -0.08259884479619   -1.78946895375610   -0.50072692698515
O           2.15314947694487    1.37808524779918   -0.72648114337857
H           2.49548636339216    2.19462338174665   -1.09448501239953
H           1.70666675178016    1.62639644289435    0.14341524150777
O           0.30263311394064   -0.38792127527581    2.70917843634775
H           0.14572148733414   -0.34561104519648    3.65318556231126
H          -0.58816313426179   -0.49327181467825    2.28343480167683
N           1.34523049029421   -1.49916434915796    0.15662894262240
H           1.16802810945946   -1.19711533770536    1.11108660281456
H           1.81979026398636   -0.74003337141099   -0.31843852679743
H           1.97975904612423   -2.28690832437792    0.19650976903711
