    26
        -50.45020618  Gyration_radius:  2.49104363186 Dipole_moment: 5.966
 S          -1.13063906547602    1.51784359726773    0.72112666896597
O           0.07516554735657    1.29273647114779   -0.05889756473818
O          -2.03230147426774    2.47424477518857    0.18841456952911
O          -1.82635772312845    0.16649728979061    0.91318951579481
O          -0.70757100614702    1.93494692834005    2.14552695680567
H          -0.17975643423972    1.17023682534968    2.51297587599456
H          -1.20728276461931   -0.64647591218240    0.66738897178747
O          -1.49082416871818    1.07748069395819   -2.25591387520687
H          -2.20520749585597    1.63148415314411   -1.92886760571691
H          -0.77933986039325    1.20420762606202   -1.61105184081664
O           0.50723385052476   -0.25066928698252    2.81318263966381
H           1.20041835370009   -0.47460076626164    2.15654331107668
H          -0.16255808057100   -0.93605211796179    2.73585261016991
O          -0.35890937210487   -1.76004913176732    0.30040157567546
H          -0.61125352646769   -1.85447579709382   -0.67060534989875
H           0.57347021376934   -1.49403169109737    0.32130410996928
O           2.70736305942199    1.37504579269310   -0.25387602620104
H           2.88172816321717    1.45264780690581   -1.19377247672099
H           1.74876423445742    1.53510823633372   -0.14660744282383
O           2.27935694872821   -0.97774737657059    0.88256081685403
H           3.09819527957494   -1.35710636137495    1.20560320376699
H           2.51366561922584   -0.12107337401640    0.44890672068516
N          -1.11666260563344   -1.79163294978616   -2.22464653006178
H          -0.47106415538693   -2.06144738458902   -2.95603899231762
H          -1.32927013497666   -0.79992732587351   -2.34832855584547
H          -1.97636340185450   -2.30719069064655   -2.36437130640686
