    26
        -50.44687990  Gyration_radius:  2.50301895624 Dipole_moment: 6.588
 S          -1.16393754890481    0.90011001035832    1.47012824331770
O           0.16300609808073    0.35306006748803    1.29414202005425
O          -1.23645879084500    2.01960371577698    2.34372057477130
O          -1.73731483307017    1.27140565588234    0.07377788266681
O          -2.10126465684451   -0.23288771294299    1.90967547805608
H          -2.10371301908757   -0.85877785852223    1.11647831572364
H          -1.37245555205366    2.20419802000787   -0.13500386966022
O          -1.92729143086397   -1.46679675840584   -0.32165953372338
H          -1.94668346645007   -0.63615890001207   -0.81151002053407
H          -1.06090676906592   -1.87643905966595   -0.53043367008276
O           1.42836746574292    1.78218328019464   -0.60594927108463
H           1.16570816863498    1.24851509945802    0.16357139391327
H           1.08792769064975    1.27648675180288   -1.36428094790022
O           0.29777869529217   -0.02804248582563   -2.37444805355235
H           0.41367232818993   -0.89387486646823   -1.95065718403619
H           0.55314531444817   -0.13146064012004   -3.29214050035952
O          -0.51965438261641    3.46897206860961   -0.09465832568062
H          -0.49196438299960    3.61227001699424    0.85738627998560
H           0.33605132357865    3.03270646327872   -0.35192711243972
O           0.49166402686543   -2.47050113480547   -1.05736908644005
H           0.53816356881983   -3.41388439139767   -1.21818953719124
H           1.07973178112802   -2.27686885862780   -0.26544564678239
N           1.93221966223819   -1.85812575760409    1.06442161296059
H           1.34943645995053   -1.05259296952894    1.29352029596789
H           2.87135633665914   -1.51327399610220    0.90863352725351
H           1.95341592242297   -2.45982575982281    1.87821711477725
