    26
        -50.44661285  Gyration_radius:  2.53705608589 Dipole_moment: 5.174
 S          -1.49212581754384    1.52364248639941   -1.19681772982890
O          -1.59453703382054    1.81745310744568    0.21470378305075
O          -1.98291322237075    2.49588549163985   -2.09847104867398
O           0.00484888626777    1.18963300493343   -1.48378186717099
O          -2.17583224825111    0.17071192323798   -1.49345549291476
H          -1.96575329513943   -0.51258170662192   -0.79428193885745
H           0.52359708039274    1.78263476915665   -0.83631576560731
O           1.69295916945839    0.48482478451022    1.90860347191998
H           0.73324886047215    0.26043255390889    2.05376762630037
H           2.07240155438519    0.61295313182315    2.77899845057983
O          -0.88439081046276    0.07559099867878    2.13012934304333
H          -1.14456062864829   -0.73558300568167    1.67082428513915
H          -1.23812005069089    0.79240880495729    1.57003921433857
O          -1.68611276108050   -1.73619166360872    0.19804268315446
H          -2.43392850438649   -2.33668632689038    0.20188253609324
H          -0.91823671015400   -2.23569159976677   -0.21723961136370
O           1.02555823629005    2.57400307372845    0.36584359500451
H           0.13634415256624    2.75366613288088    0.70040291150089
H           1.40087391696886    1.87433839623522    0.95083625935367
O           0.28730434110172   -2.92302211473666   -0.97974501705326
H           0.14255304946729   -2.96417816905052   -1.92675443448330
H           1.01379808424657   -2.24093647681370   -0.84102158014185
N           1.99467406478747   -0.92760344077285   -0.73613739533749
H           2.93807831109227   -0.98375479195269   -1.09812817981761
H           2.05268418156135   -0.59513039747012    0.22214330573397
H           1.49758718340202   -0.21681896611598   -1.26406738415043
