    26
        -50.45077212  Gyration_radius:  2.59460995127 Dipole_moment: 2.999
 S           0.29508544711882    1.28056293267247    0.04861160589236
O           1.17023918941758    0.19131901685615    0.41394968653506
O           0.50897253609562    1.79475967930693   -1.26520746907340
O          -1.17616498187472    0.79238829970872    0.19892051824558
O           0.36313183265308    2.40069909193283    1.07263380777039
H          -0.23148723023652    2.14692140321466    1.87184701157680
H          -1.27714668364859   -0.06827616002165   -0.32050188462869
O          -0.93593297164205   -0.75561952258939    3.66543016281832
H          -0.25958900361322   -0.93674148267878    4.31988286781179
H          -0.68446656851147   -1.27389488496062    2.86360141444827
O          -0.07649599976538   -1.95326850612934    1.46717222006084
H           0.50913254030507   -1.24799030330141    1.13660135394899
H          -0.67181264826651   -2.16102860738649    0.74058629720356
O          -1.27036278702719   -1.38122035326409   -1.14166243051590
H          -1.80003344640114   -1.31947238553252   -1.93840994633649
H          -0.30952168026539   -1.50309126392217   -1.44455166342937
O          -1.23815815900663    1.73390088594806    2.89831224203814
H          -2.06309441801671    1.69557903640983    2.40729599405923
H          -1.09218306898559    0.81009661736409    3.23999018790264
O           1.20788307866779   -1.45399918879743   -1.78921183470021
H           1.50938273106287   -0.95728103539782   -1.01328566990589
H           1.36349914590411   -0.85548851247820   -2.56043955766935
N           1.52121182525681    0.49360654717022   -3.63176708730120
H           1.18674036169349    1.14564806146994   -2.92339110014490
H           0.97261429900908    0.63845552119111   -4.47010478899362
H           2.47855666006673    0.74343511325930   -3.84630194763742
