    26
        -50.45006385  Gyration_radius:  2.48613054223 Dipole_moment: 4.603
 S          -1.25646306258732    2.03501507582902    0.18023494095580
O          -0.95753833980059    1.21485527995015   -0.97587891510402
O          -2.20152754848503    3.06961085919529   -0.00417454392586
O          -1.71569895026807    1.08449950404715    1.32429116423620
O           0.08029558169426    2.59996165926943    0.70527502855415
H           0.35584423602132    2.13261223458261    1.57447965683542
H          -1.57478328320682    0.11585992216380    1.07368162274841
O           0.69780484882024    1.28787198536403    2.77539283648011
H           1.01935671534263    0.43867877707116    2.35989923537087
H          -0.14282991189075    1.08781147923756    3.19523062694841
O          -1.37724519633884   -1.39410108664667    0.76798565024171
H          -2.13302855923540   -1.89966060920183    1.07148566613585
H          -1.38606681121289   -1.44800200818311   -0.25554759395016
O          -1.34815262328125   -1.36623947807415   -1.77259308221393
H          -1.34953964916801   -0.39852054353637   -1.82334023669296
H          -0.42449992715212   -1.64045995295772   -2.01252229923826
O           1.63460704679175    0.71152279675737   -0.84098923531187
H           2.03457664926046    1.54385841901844   -0.57924283960005
H           0.68435070591828    0.91160084892136   -0.98507407776012
O           1.27973489393820   -0.83866059962090    1.36706053211701
H           1.53643931171561   -0.38841079770346    0.53791939662174
H           0.41576811449513   -1.23972499926631    1.19428589414886
N           1.26012724571775   -1.90514916230295   -2.20154474856430
H           1.55699772995255   -2.06204971400866   -3.15598816109561
H           1.66214060394539   -2.63416975354185   -1.62577807259240
H           1.64933016901100   -1.01861014633932   -1.89454845530511
