    26
        -50.45007681  Gyration_radius:  2.50587155091 Dipole_moment: 4.973
 S          -0.73118982247374    1.85108909213120   -1.43069788990185
O          -0.90406625127557    2.25947363556952   -0.05367244695919
O          -0.66588522051453    2.87369127324122   -2.40465504332144
O           0.53868206983094    0.94483346787118   -1.47692241407691
O          -1.84402468959950    0.85416649553833   -1.81688546961694
H          -1.90964520323793    0.12422321986786   -1.13414605596966
H           1.10305975015190    1.21402932728285   -0.67021074337041
O          -2.08860341760320   -0.97800521746780   -0.00043833147522
H          -1.98464413446524   -0.40245420847331    0.82556774949064
H          -2.99449150665796   -1.29252430615891   -0.00176099152848
O          -1.64898859521788    0.64119094958110    1.94456978437720
H          -0.77577539496846    0.36097810742209    2.27110732482950
H          -1.47733196504302    1.39315997021066    1.34612947243358
O           0.37532901300186   -2.21124396382274    0.58799976809745
H           0.93897027058798   -2.12093044685936   -0.21813611455702
H          -0.51998135876404   -1.98045108652505    0.30201418509392
O           1.64483750095777    1.71833924100375    0.65867561781800
H           1.49248494800033    0.98333054061373    1.29488812322805
H           0.90753738696375    2.33152184465185    0.78493191920509
O           0.91699566269301   -0.30481405040723    2.25897129893244
H           1.42432129619955   -0.66088940814782    2.98897879960627
H           0.74661219010999   -1.07239147346685    1.63261206493653
N           1.75890439160019   -1.73959265159392   -1.69343096925994
H           1.56151347384187   -2.32748004894665   -2.49340331407216
H           2.76372574281371   -1.64041667867515   -1.62301346478852
H           1.37165386308899   -0.81883364444478   -1.87907285914512
