    26
        -50.47508725  Gyration_radius:  2.415992878 Dipole_moment: 4.308
 S          -1.13419906687151   -0.80233230216419    1.08600840519984
O           0.10146541959563   -1.56895189524457    0.84941228778029
O          -1.06485100841819   -0.04349780193895    2.31090211983658
O          -1.40645836120889    0.05817233884558   -0.06604209801823
O          -2.29841444400965   -1.82264156126010    1.19220405589231
H          -2.17744362462960   -2.36145018676222    0.37989905377362
H          -0.85002707601803    1.69508233881298   -0.25175587201999
O          -0.64755454883169   -0.60876817977232   -2.44716995707363
H          -0.96312019985921   -0.35093547307990   -1.54271106587415
H          -1.26125085141080   -0.20528087868609   -3.06382140859106
O           0.76587878484633    1.79568254803995    2.21124490034575
H           0.87964823191676    2.15550796085816    3.09251842001448
H           0.02695414032906    1.13449804997416    2.28425433355687
O          -1.27040035054810   -2.94678441322260   -0.96592409249053
H          -0.50595564024596   -2.75569719638282   -0.39921378216256
H          -1.15701016548561   -2.36622720105672   -1.73343149812091
O          -0.27336336413397    2.47638408770408   -0.35069622727729
H           0.09458096170365    2.61979614529000    0.52961784813417
H           0.84107958599862    1.77926850293343   -1.46265915830166
O           1.43304042079286    1.08646043245806   -1.84195126104568
H           1.90000342459758    0.50288638535388   -0.51525203139312
H           0.82765980500148    0.42495383921316   -2.22888723384680
N           2.04056915418991    0.11970340520588    0.49021155142614
H           1.31883620525483   -0.65099970985521    0.63523385278744
H           1.79814053981152    0.86239476411893    1.17280797182026
H           2.98219200763268   -0.22722400938296    0.63520087565541
