    26
        -50.45272371  Gyration_radius:  2.41344275908 Dipole_moment: 7.992
 S          -0.09228457656486   -0.45200680144541   -2.18785118331274
O          -1.14953740778930    0.17401894110251   -1.38734327260296
O           0.11685283442960    0.13636856380653   -3.46604902292497
O           1.23504351535327   -0.28073031469591   -1.30865385870031
O          -0.28139859647334   -1.91147051128166   -2.16305506660498
H          -0.68160533407049   -2.01163214158246   -0.83427312288582
H           1.35481162234175    0.68014199138227   -1.00714018107675
O          -1.24021525405516    2.47827631379470   -0.34318499073913
H          -1.21355897944229    1.63663151378325   -0.88379018883125
H          -1.77313301160347    3.09777861840158   -0.84261040198991
O          -1.53201250890629    0.48392964678466    1.55045368617772
H          -1.46067401314923    1.21839754840019    0.90955286791786
H          -2.28994367073324    0.68170804127129    2.10264469288188
O           1.22005523158930    0.67174149283811    2.12124842315862
H           1.56321602723104   -0.19506558445189    1.86489677249220
H           0.25487112169630    0.59579073725355    2.08809736813719
O           1.46523573429663    2.01806415162440   -0.21395237208968
H           0.58362386148167    2.42280650062946   -0.27239740214341
H           1.53186789768732    1.67831389879677    0.70491347655939
O           1.78203412246425   -1.76882019519988    0.81717800834868
H           2.55898758581212   -2.31915301098213    0.71049043513827
H           1.69500394613471   -1.24697003454114   -0.01576117286516
N          -0.88587195228045   -1.97586593800591    0.27636529451868
H          -1.23980547811526   -1.02530183939226    0.48152387696576
H           0.03025311213000   -2.10174512759226    0.73638645863298
H          -1.55181583946360   -2.68520643069726    0.56231088583502
