    26
        -50.45092446  Gyration_radius:  2.54434173485 Dipole_moment: 2.450
 S           1.24581442201203    0.02715715762841   -0.90667075557804
O           1.27400772172784    0.89979784144048    0.24440126011333
O           2.00240932871942   -1.17209153874176   -0.79071093891010
O          -0.23328867238232   -0.32496970551851   -1.20690512636877
O           1.70824101555592    0.78397191760981   -2.15402291037639
H           1.07506366440356    1.55840641430215   -2.33068302333745
H          -0.88512598626079    0.14242363842760   -0.58449030137296
O          -0.33813733426478    3.04290940034339    0.05162559044946
H          -1.16847263784090    2.60200881143127    0.26847557357308
H           0.35629093137142    2.40447509179166    0.30089816988897
O          -1.87938428057446    0.72369864921330    0.44460012034771
H          -1.33973335995269    0.58618058453040    1.29495000837076
H          -2.64422796423357    0.14960355922030    0.51663877385677
O          -0.29490867597771    0.26359018289394    2.39673958618544
H          -0.32000342793122   -0.71666345523345    2.48550819817145
H           0.49746587296226    0.47636936704689    1.88035621595027
O           0.13744401520987    2.75648583179102   -2.48767269745197
H           0.62131736386709    3.51735515283558   -2.81589198323160
H          -0.12640749720767    2.97118383002118   -1.54787397424492
O          -0.34727794910697   -2.40732425254529    2.37579390407392
H          -0.25391256491594   -2.71603399115908    1.43543386228805
H           0.36813956486815   -2.81814756982556    2.86318350552054
N           0.05746103630471   -3.16230140626370   -0.16519010498400
H           0.84741261908870   -2.55979936822017   -0.39517591495840
H          -0.68881169403381   -2.91198273497651   -0.80237276828161
H           0.32862450860497   -4.11630338803524   -0.37094425968709
