    26
        -50.44943711  Gyration_radius:  2.61828825835 Dipole_moment: 4.910
 S          -0.40838721399002   -0.74996899985379   -1.57929096636672
O           0.66968249689898   -1.08201122534444   -0.67732904686211
O          -1.71546670399256   -0.77144451499124   -1.00745446288318
O          -0.10053230337444    0.64151395226418   -2.18834447213130
O          -0.35360112511606   -1.65709000242338   -2.81062643081056
H           0.64339817217429   -1.69029307529514   -3.05844696586534
H           0.01019492123011    1.29434058637272   -1.42290871987212
O           0.30623204737252   -1.31741456880542    2.02742509798786
H           0.64844580808750   -0.45031088439537    2.29909842004048
H           0.49810481974830   -1.37915542400231    1.07799776107701
O          -1.72326836933037    1.86491273567959    1.76279584563813
H          -1.98973892648573    0.89004463876490    1.74464867657135
H          -2.54039816932703    2.36271975422650    1.79460265469897
O           0.84660920430162    1.36316688726941    2.63295579343040
H           1.05666690612203    1.53852265734361    3.55105513293751
H          -0.08026308404540    1.62943879893279    2.50224948419389
O           0.18899940481330    2.09944586434546   -0.11712994217294
H           0.88330879235415    1.73862907883133    0.44597709342994
H          -0.61550976407943    2.08756109320334    0.44610291248007
O          -2.26565933417007   -0.65139855776970    1.65620246026492
H          -1.40990549754451   -1.04297914936475    1.94372008564276
H          -2.28517363948453   -0.79443121609439    0.69596068263119
N           2.19571341935537   -1.53058886435536   -3.00812855226805
H           2.20452588068215   -1.38234976643916   -2.00270077462000
H           2.54157125362643   -0.69924945559603   -3.46801191767669
H           2.79445098418225   -2.31161033250243   -3.24041984949527
