    26
        -50.45038885  Gyration_radius:  2.64337588834 Dipole_moment: 6.837
 S           1.05091265258259   -0.68299684301381    1.04231572855889
O          -0.06412680987459   -0.40152231127170    1.92619512170406
O           0.75724711471570   -1.59246839586021   -0.01622491639145
O           1.57350227295028    0.65398789998412    0.49048771077012
O           2.24044389591127   -1.18547245984999    1.86510832207143
H           2.31887221907339   -0.49261049319763    2.61443161557491
H           0.82451603481448    1.17017648404165   -0.04057437328055
O          -2.16950718241341    0.20592125921821    0.47468734244171
H          -1.43823703711472   -0.12503868934933    1.04375702965905
H          -2.92890923585756    0.32578163930459    1.04812154277678
O          -2.61050156116976   -1.01982024395487   -2.01055095975927
H          -2.45923880451968   -0.26861271539646   -2.59080438847292
H          -2.48774376967826   -0.69031250993524   -1.10687990583052
O          -0.28835172235432    1.77631212505051   -0.73815193518959
H          -0.24378502708185    1.44444965974539   -1.67442196867514
H          -1.08227504758227    1.36473614964112   -0.35267509722364
O          -0.06751570086804   -1.84013360871356   -2.60172549086136
H          -1.02591276473550   -1.91039972620833   -2.43898474057779
H           0.34069487100050   -1.89066393991503   -1.72329404279843
O          -0.18980311403733    0.71733671876609   -3.14211441203394
H          -0.09728449449941   -0.26675953095698   -2.99019881688398
H           0.55667000977717    0.97237280994094   -3.68475808910323
N           1.99068725447505    0.73300286512050    3.54501432633108
H           2.17161465780072    0.73370033299858    4.53999375763147
H           0.99063401985159    0.67554438239151    3.37882593098971
H           2.33739725884212    1.59348916141221    3.14242071858065
