    26
        -50.45092435  Gyration_radius:  2.5442148397 Dipole_moment: 2.451
 S           0.33434136734959   -0.26717162458913   -1.47980699831862
O          -0.94845213686501    0.34281217938709   -1.21574329719769
O           1.35045262433606    0.61141247727326   -1.94865297169925
O           0.81383829456317   -0.96082494642478   -0.17946424160240
O           0.17629232476683   -1.41691840503361   -2.47742360945915
H          -0.43124750143729   -2.12609232159390   -2.07795169588759
H           0.14180106866836   -0.88938554773484    0.57838132619767
O           1.16092984799829    2.79741560579311    1.54649399111580
H           1.30641421206921    3.64545018035594    1.12473803299707
H           1.84101366673611    2.17979347222114    1.16684553277262
O          -0.79848947130756   -0.66361175884599    1.78200068592197
H          -1.05315958885306    0.30660531298831    1.61696411203901
H          -0.29129238677280   -0.67308228614329    2.59586902742784
O          -2.75852774177745   -1.31968386496314   -0.12563821635549
H          -2.30690369753178   -0.58152191729892   -0.57631296799098
H          -2.43396707303305   -1.29063597026522    0.78246604372672
O          -1.26068034593317    1.75773799125422    1.10710125454878
H          -1.24967194464562    1.55718652246519    0.15864562620079
H          -0.41351907885512    2.21700159077461    1.30881820985975
O          -1.42337864972526   -3.11033350075266   -1.45569115078349
H          -1.98224614651590   -3.49353156447166   -2.13513728164646
H          -2.01315049474255   -2.52675304765773   -0.89863179848167
N           2.92382033676595    1.15649438502418    0.36690965960213
H           2.98721416283709    0.23503256042539    0.78220987547834
H           3.86774352016474    1.47668046485721    0.18670576909394
H           2.46082486175434    1.03592400296047   -0.53369488757990
