    26
        -50.45092438  Gyration_radius:  2.54434033764 Dipole_moment: 2.449
 S          -0.22202935384689   -0.94440566145101   -1.19654019253059
O          -1.22778396183469   -0.97967834992182   -0.15990749530704
O          -0.57144495714318   -0.22101007555679   -2.37079379052117
O           1.07280530117809   -0.34634954902535   -0.59023643588923
O           0.17668600468119   -2.36767774367095   -1.59340961986112
H           0.57430562204814   -2.84160805515254   -0.78778460143600
H           0.98503803250283   -0.13305587983726    0.39870458874485
O          -1.53217021627701    1.22738424101972    1.43144476054284
H          -1.37719740513975    2.03072472761045    0.88366104977650
H          -1.75528675837773    0.51078666111987    0.81775747175867
O          -0.93681680056451    3.26480427536854   -0.19091635951399
H          -1.68283648315837    3.59819376443803   -0.69135281328885
H          -0.27407581464968    2.94816421536135   -0.86084589720454
O           0.82370895122633    0.33471004678673    1.86114020838414
H          -0.11272941303081    0.72701586347972    1.80999797471059
H           1.41390803056759    1.07079362559301    2.03302254552620
O          -0.42857507909996   -2.17103756435155    2.11378468575426
H           0.07765914873192   -1.43461126762006    2.47749867604709
H          -0.94698524767023   -1.78207281388619    1.38443766434147
O           1.07832910733421   -3.52483757092379    0.48461054323667
H           0.81680496753052   -4.44808640936541    0.49202411863170
H           0.55907200511707   -3.07672181317125    1.21150107787102
N           0.73262925220513    2.29555749354707   -2.05260934060266
H           0.23035627735189    1.44248570302666   -2.29748066473785
H           1.63652275436971    2.00495004049946   -1.70019610342534
H           0.89010603591317    2.81558208613268   -2.90751205100226
