    26
        -50.44198874  Gyration_radius:  2.62726727143 Dipole_moment: 5.016
 S          -2.34598220241642   -0.03187206322888   -0.01027786381778
O          -1.34727099864151   -0.55671929797945   -0.90882889922141
O          -3.39702345010167   -0.91789924530836    0.34068313256148
O          -1.59332561177402    0.43822902711431    1.29102602665601
O          -2.88920597751636    1.29759928404361   -0.52341806010499
H          -2.07450570051333    1.84475905337366   -0.78607732439430
H          -0.97620732103818   -0.28982714965259    1.58713909148702
O           0.15685474109627   -1.36790119263221    1.94494015499821
H          -0.22399092743344   -2.24610310280247    1.89009152491002
H           0.70467137197985   -1.24116321098764    1.12321309443670
O           1.20597048938405   -0.82593733410318   -0.38150544296484
H           0.28486188732736   -0.67753250836751   -0.69248188237355
H           1.58694230586973   -1.45433249818300   -1.03294865630603
O          -0.82049619272942    2.66404505969193   -1.06827091126020
H           0.03180434747842    2.34287700314575   -0.65046032584543
H          -0.92592725935779    3.57504207441256   -0.78663130446729
O           0.62022194846741    1.47398009491876    2.71991603256449
H          -0.32491590144095    1.52317507627974    2.54073785463757
H           0.80841831979975    0.54229123627700    2.87187807085350
O           1.36678276598926    1.86974139970909    0.11264497994567
H           1.50478112438905    0.94019550679023   -0.13593628448466
H           1.21986794524174    1.86238878389983    1.07778474790743
N           1.85383151502860   -2.54938375866835   -2.40001227032441
H           2.17876407808268   -3.49380874197131   -2.23555900616470
H           2.46799926054427   -2.12060374252443   -3.08108867753707
H           0.92707944227581   -2.60123977326561   -2.80655781169295
