    26
        -50.45473870  Gyration_radius:  2.43772620088 Dipole_moment: 3.427
 S           1.27785006328744   -1.27506078427215    0.25631811314507
O           1.28701466935291    0.13564907422886   -0.07302053337066
O           1.93897930253902   -1.62149860545607    1.46605351332194
O          -0.18107948339554   -1.75733683888212    0.27724907735117
O           1.89365710186987   -2.06001099167389   -0.91660187004480
H           1.28006423132901   -1.87463657117823   -1.67758958939809
H          -0.90276079277522   -0.98513020353611    0.20233717020517
O          -0.01963328073906   -1.52853750687610   -2.57970790372877
H          -0.34137715497555   -0.60293198770964   -2.57704088260284
H          -0.71264839942075   -2.05483349952639   -2.17205592121081
O          -0.29898593308319    1.62372070126297    1.51442769463903
H          -0.30136536040440    1.10423857398376    2.34929511620749
H           0.43736236391708    1.22666146074771    1.01707515710085
O           0.73442414803516    2.46392010908660   -1.30449645846633
H           1.21307079930170    1.68711823094567   -0.96966874365592
H           0.37482147187598    2.89497380663731   -0.52253967965509
O          -1.83811233342139    0.09142573675988    0.06114060995067
H          -1.73583966359236    0.42215714090373   -0.84906223505777
H          -1.41696604519660    0.77661091215251    0.65153458395591
O          -1.09811376424947    0.96191357761405   -2.42838817199531
H          -1.46795069142320    1.37047122202509   -3.21237741689650
H          -0.40250458635793    1.58365187970889   -2.08156724928830
N           0.00225015761181   -0.39457686264354    3.28431831569202
H          -0.78280950521493   -1.03487582694452    3.26654708717745
H           0.30170045267898   -0.31099014450993    4.24848945167691
H           0.75895224246452   -0.84209260276184    2.76933074496083
