    26
        -50.45473858  Gyration_radius:  2.43810407859 Dipole_moment: 3.423
 S           1.70695499831423    0.44346772362404   -0.46046990071822
O           1.08167241135118   -0.68654321641711    0.19589479862645
O           2.39426536549971    0.14133816357712   -1.66752464046496
O           0.63484377515501    1.51770059996052   -0.70061316643405
O           2.67057664946656    1.12006464873474    0.53199495453619
H           2.07789199845828    1.42900486707500    1.26884691337057
H          -0.35719834917832    1.20608526705655   -0.49526565606478
O          -1.30095290725934    0.27636293734586    2.50276339363105
H          -0.98705296226849   -0.65817907998678    2.36569270577016
H          -1.77898856536666    0.28852066555750    3.33320479698197
O           0.80981904467267    1.94902764989135    2.13234804028163
H           0.09798476799882    1.30451912696182    2.32751910111173
H           0.41866896954142    2.61704127834480    1.56292975423513
O          -0.42134636656831   -2.12083708019814    1.90549720639956
H          -0.97616199244375   -2.51729875566034    1.22613513335856
H           0.34402537862069   -1.75741762619785    1.42920532383947
O          -1.67495838071373    0.74836276550282   -0.16930757584020
H          -1.64519965970236   -0.17459996234528   -0.54730658416244
H          -1.69337798490805    0.64193553093250    0.79848491926622
O          -1.08596300333996   -1.62085044819043   -1.10034648474007
H          -0.88785297495357   -1.38097833830739   -2.03329098345260
H          -0.22672866186058   -1.49742804330652   -0.66039608712902
N           0.02877436343541   -0.47346215351723   -3.27646012952614
H           0.92826545391098   -0.30645200268998   -2.82787589302520
H          -0.37184028086434    0.43527667068265   -3.47721784820694
H           0.21387893298066   -0.92466118842929   -4.16444208166357
