    26
        -50.45001157  Gyration_radius:  2.56854157068 Dipole_moment: 2.222
 S          -1.36751152952093   -0.22690640826332    0.51617099563348
O          -0.02189649490336   -0.77734693807222    0.51021140733806
O          -2.32435109075752   -0.95911817405129    1.26347736283603
O          -1.28046185249253    1.22105358351603    1.05826579318235
O          -1.83092888258401   -0.06711439655479   -0.93286726759963
H          -1.16556452445423    0.56181285821084   -1.42768293924246
H          -0.35506190676275    1.56160753538483    0.84895649135921
O           1.22064055276267   -0.40848923068088   -3.33581416850106
H           0.85048547930614   -1.19174411979941   -2.84894045795538
H           0.95091722059220   -0.50148031126565   -4.25085443387839
O          -0.23927294368305   -0.62314002832128    3.21585999375679
H          -1.19686494183886   -0.71079568687862    3.19171739214282
H           0.05850136964630   -0.94713967886567    2.35496105095157
O           1.19752229326741    1.61711035202506    0.54785516161448
H           1.26080437209478    0.65334067929753    0.45168548512773
H           1.43203827961633    1.79417977161315    1.48951114116275
O           1.19515441049292    1.70841389464074    3.19514414835558
H           0.73801462453779    0.85641059562099    3.34077744055240
H           0.64116961017429    2.37995734380818    3.59636138079746
O          -0.09945871899954    1.42258112459158   -1.99009410539737
H           0.48415786042501    1.75236725243624   -1.29438842491537
H           0.45123053336310    0.80681093899659   -2.54475647489223
N          -0.00232518565060   -2.34445815545333   -1.93277924612260
H           0.29850744727348   -3.30933003266216   -1.87104198218595
H          -0.99359934478705   -2.33925931528901   -2.14270589925206
H           0.09815336284107   -1.92932344395563   -1.00902987491325
