    26
        -50.45060018  Gyration_radius:  2.56445494977 Dipole_moment: 6.225
 S           0.16319353616375    1.47831509224964   -1.67564214385904
O          -1.18365455609162    1.62343804370103   -1.16777903097672
O           0.55290707289921    2.34528993727563   -2.72294241099265
O           1.12218422472433    1.61672875765807   -0.44087673465980
O           0.40501232189206    0.02206103351496   -2.09011538179383
H           0.11971020292842   -0.62021215294113   -1.33655437292015
H           0.65666199544222    2.28416928432262    0.16658618759036
O          -1.00273070389031    0.93355204390744    2.55274323648793
H          -1.50752428170005    0.89990283713576    3.36585527081205
H          -1.57252696011712    0.51451352436964    1.84474045032577
O          -2.31790288362551   -0.09623874684373    0.54739097609955
H          -2.09081188385863    0.55629213462840   -0.14313436157585
H          -1.82616871106647   -0.89227933448508    0.30071958181706
O          -0.14112983643850   -1.60501314946559   -0.23290176614056
H           0.40915993939396   -1.24681864207054    0.51238752250878
H           0.36364891906706   -2.37232718714864   -0.59915102835073
O          -0.39910213296626    3.05586037310194    0.98395865409032
H          -1.07816407533585    2.93127055726138    0.30502532657426
H          -0.61576725706174    2.42049368848620    1.69833671792826
O           1.25996827688465   -0.32086496305098    1.59067915465708
H           0.56787565359816    0.10557600047754    2.12550453166510
H           1.57960055207538    0.36308179131000    0.98738172408439
N           1.45693314490306   -3.37797755683473   -1.47990494729568
H           2.31325155259751   -3.59206156663383   -0.98424545996620
H           1.68942283102134   -2.78361246305814   -2.26693065080684
H           1.07595304855581   -4.24313934683970   -1.84113104530440
