    26
        -50.45388335  Gyration_radius:  2.49555651908 Dipole_moment: 2.534
 S           0.31248682855000    0.93877284176825    0.88503637724126
O          -1.10936506708186    0.78399078216723    1.04980045969962
O           1.09759759223021    0.26389537585376    1.88073431491712
O           0.70615539025860    0.43006476481614   -0.51967357795330
O           0.70293801185680    2.40628989538815    0.82100879565872
H           0.38118195250401    2.76003506514748   -0.08970489580299
H           0.53470603382215   -0.59664711624531   -0.54941349994064
O          -0.71662297935236   -1.76129201633301    2.09477789187029
H          -1.52605425072119   -1.24206558422220    2.07984417053964
H          -0.01327657256135   -1.12360740293487    2.29827954707513
O          -2.13532869335076    1.78041531187819   -2.33862926494392
H          -2.97136061323394    2.19060590456719   -2.11093803388514
H          -2.16750736739615    0.87364454030810   -1.95519463230252
O           0.29415185447290   -2.03863201688801   -0.35681656102598
H           1.22331859336209   -2.26511079652172   -0.09390696907307
H          -0.20171065331617   -2.11174632388428    0.49319998622273
O          -2.20985980099649   -0.53080202486491   -1.00991363091014
H          -1.57276892568047   -1.23029835725480   -1.18300178564178
H          -1.91548473553259   -0.07961066481738   -0.19605844546877
O          -0.00158807711788    3.07273719574957   -1.50574490894154
H          -0.83887335310863    2.61838390458127   -1.79496915963486
H           0.69420958929279    2.67969141977479   -2.03869618609678
N           2.67089570494324   -2.03997660587953    0.85175915014109
H           3.55042751613055   -1.82934233264301    0.39739393756177
H           2.84732476303676   -2.74982312898146    1.55200430237064
H           2.36440724897495   -1.19957263054884    1.33882263829930
