    26
        -50.45180932  Gyration_radius:  2.50461687587 Dipole_moment: 4.435
 S           0.68897431070891    0.33354731545211   -1.56174290117419
O           1.20287044417276   -0.54509532422524   -0.51021967858964
O          -0.01556388142347   -0.37736628450167   -2.58723022763795
O          -0.13874727518882    1.39392030780681   -0.93197256588535
O           1.90499958115562    1.06159757106417   -2.20454968786256
H           2.19218673262227    1.70340397118675   -1.51563020912679
H          -1.17517251983140    1.01139548812187   -0.05878387603203
O          -2.87251969760158   -1.41807457664070   -0.23145560136153
H          -3.33663272034626   -1.21024277341913   -1.04513504135087
H          -2.05265471046554   -1.96880684667969   -0.51179439368289
O          -0.46677545478764    0.37061080963462    2.76527390196482
H           0.45780137963979    0.38956004779878    2.41675627485499
H          -0.54724819339451    1.10903828596512    3.37180738414025
O          -1.89971453654773    0.71075572928887    0.65724666531233
H          -2.33154948097265   -0.19209038888320    0.31826433926163
H          -1.38666097172897    0.52030251173200    1.51473641459685
O           2.07384562641663    2.62666091565650   -0.09591864655964
H           2.24555818559283    2.06166277555607    0.67297719386467
H           1.11982753302177    2.54925054110023   -0.26081654498219
O           1.95425926312065    0.48498896919630    1.68218513567245
H           1.67114123104957    0.06395015895021    0.81154750492828
H           2.64614076190248   -0.08047707475885    2.02936193288601
N          -0.73624519200850   -2.60251867106205   -1.06815451102929
H          -0.72348779181306   -3.52421358189471   -1.48639133979060
H           0.00970960907396   -2.55371527219475   -0.38415284879725
H          -0.48434224233913   -1.91804460422492   -1.78620867354776
