    26
        -50.47094757  Gyration_radius:  2.4462794252 Dipole_moment: 2.682
 S           0.26587957917033    0.80245672644953    0.14116019076670
O          -0.21360946940227    1.08021672693146   -1.19938797705431
O          -0.14472640369150   -0.55419453097035    0.57328627877720
O           1.69808138914410    0.96192572487886    0.28071992612522
O          -0.46941990792600    1.79885053134667    1.07831495585488
O          -2.75195058437138   -0.00990684944513    0.27296157432824
H          -2.82753069849531    0.91576688119959    0.51451140060764
H          -1.83982019137073   -0.25993967523190    0.50738048751481
O           1.78691442139431   -0.26931134202010   -2.29530946213365
H           2.45099265527235   -0.11601140975854   -1.61609300550381
H           1.11545205841222    0.41756994875847   -2.11706681824110
O           1.93254302760707   -0.54647918420477    2.42305387372815
H           2.07597369197828   -0.01709911405579    1.61016505227935
H           1.17902011194446   -1.10417303548615    2.20305203376065
O          -2.19418116210194   -0.34677530211460   -2.34541485070180
H          -2.69980015346788   -0.33334067167181   -1.50689161343588
H          -1.58570706194450    0.40586590276692   -2.23976803241519
O           0.75318469160469    1.62428541429656    3.34956689298155
H           1.23141347383099    0.76906234840557    3.20124281739103
H           1.42875575238118    2.30517973553078    3.38354742268501
H          -0.05197017997813    1.76571802657540    1.98955826662052
N          -0.22388847724447   -1.90533277665401   -1.65585428890052
H          -1.08601048497130   -1.42026766032219   -2.08413245988135
H           0.63670757927525   -1.50582143010973   -2.09923102902261
H          -0.20034884189924   -1.54128414794932   -0.66150095611435
H          -0.26595480514964   -2.91696083717714   -1.70787069001885
