    26
        -50.45377530  Gyration_radius:  2.46837075984 Dipole_moment: 3.510
 S           0.27628956885935   -0.64476355354569    1.78813649914080
O          -1.03929123476311   -0.98371583991624    1.31276140519357
O           1.06606883823165   -1.75762712177436    2.22093335710137
O           1.02451921942384    0.11948362910526    0.66357327427590
O           0.20416564462659    0.40757751527293    2.88484679245025
H          -0.38275587481994    1.15598202367843    2.50236534302195
H           0.93371386682522   -0.37972757422569   -0.23013920627019
O           0.69962092591013   -1.21304109571848   -1.47013364136622
H           0.83459245348249   -2.10265343867325   -1.07487114332610
H          -0.26543824941943   -1.11228706570503   -1.58005700371753
O          -1.15816464263354    2.24293347122758    1.81585087601139
H          -0.71721723393346    3.08947146196850    1.91443061849619
H          -1.27416347171211    2.10587328510741    0.82672421902585
O          -1.34357399410438    1.96065780169899   -0.76116030215747
H          -0.44028853116271    1.99114133056471   -1.15202825014494
H          -1.69122317574147    1.08405212805667   -0.98147719530949
O           1.04366514133944   -3.35440082466648    0.07936634089433
H           1.00235399181756   -2.88064247405022    0.93444939881529
H           1.83482039569606   -3.89585396970177    0.11412092912362
O          -1.94914818105525   -0.75136834886783   -1.11717921150874
H          -1.70005988708648   -0.85296907447335   -0.16799829203422
H          -2.75800638378289   -1.25117497099023   -1.23684020679238
N           1.19439383400532    1.83557959430388   -1.77123562271690
H           1.22092231044177    0.92784532864463   -2.22111166737253
H           1.73082747258764    1.75646923868018   -0.91559480400406
H           1.65337721696552    2.50315856399574   -2.37773247682958
