    26
        -50.44473405  Gyration_radius:  2.48738557742 Dipole_moment: 7.129
 S          -1.66936067878060    0.19594252051415   -1.80502540221922
O          -2.16747967503038    0.69720591285723   -0.55538980251962
O          -2.30061461556304    0.61175028282990   -3.00131734755157
O          -0.13256336695454    0.54611182544097   -1.87724309561366
O          -1.61027308354315   -1.34392180896961   -1.74829089504071
H          -1.44988763808930   -1.59281647283485   -0.78188078717976
H           0.11782643475463    1.22957478062501   -1.20584716436878
O          -1.20971231270330   -1.99124319492631    0.69093981807208
H          -2.08104564810239   -2.12697480508248    1.06772994305557
H          -0.76596765212044   -1.31501316694006    1.29326337441294
O          -1.29083405802509    2.01863018852315    1.62736293860829
H          -0.58144446352760    2.47643398384509    1.16279379962752
H          -1.82593752625645    1.61488367240535    0.92337918826296
O          -0.06992234879200   -0.26956415605035    2.25300359584565
H          -0.57068328713501    0.57573864102224    2.17104092847526
H           0.81910707101065   -0.08269469782723    1.91761108864571
O           0.91319856432974    2.24040253434713   -0.17018175142435
H           1.47511543143425    1.56493022957454    0.27063902501584
H           1.49910884468778    2.79956730909452   -0.68380881607192
O           2.31004181409611    0.19596692234436    0.84464972392150
H           3.20536609875845    0.02963657938123    1.14049404613377
H           2.05516211444693   -0.55579777268967    0.22337532079363
N           1.48019218164886   -1.71607452593515   -0.77204251706999
H           2.08547084773236   -2.37003907866416   -1.25220145413466
H           0.97716554356752   -1.18085480926365   -1.47384486277172
H           0.78797143815624   -2.25178090362070   -0.25920890490379
