    26
        -50.45091418  Gyration_radius:  2.44445439359 Dipole_moment: 3.972
 S          -0.95507021860238    0.53937887289572   -1.20208041349044
O          -1.97447454033315    1.27997814465628   -0.49024962544011
O          -1.01438900962014    0.57412867765714   -2.62230306946222
O           0.42708483439061    1.04389668232529   -0.72120580821497
O          -1.00099509086158   -0.91937419578251   -0.73296510936370
H          -0.30328695049458   -1.13228273723126    0.04307330755908
H           0.29695296701897    1.72603653789772    0.01670528389065
O          -0.45644474885680    0.46157133688071    2.82085342369583
H          -0.52004327955396    0.38022155945387    3.77346835292968
H          -1.33318969469245    0.17527125161121    2.45016418794891
O          -0.28339345789918    2.60283067006137    1.15647207727294
H          -1.17411113080985    2.55338780895034    0.77939929305898
H          -0.26805239104651    1.97815859849244    1.90680505230420
O          -2.65158551384334   -0.25435366215876    1.56317732097173
H          -2.58092329319897   -1.13573515414914    1.18761226931129
H          -2.57410814222268    0.35659535308789    0.80051182402140
O           0.63776981660663   -1.35559102728695    1.07779323590164
H           1.49738209750833   -1.15386196902366    0.61579845398638
H           0.48774306740273   -0.66239620865250    1.74525455438048
O           2.76493274849636   -0.95163294541286   -0.38605165797415
H           3.29943238853322   -1.74070776171127   -0.49236895913815
H           2.30632665185194   -0.80747086595937   -1.25610261065209
N           1.49214157826366   -0.89651679183979   -2.76733471853092
H           0.65990201672370   -0.31634030316844   -2.69170132301483
H           1.17797624232544   -1.82029332066280   -3.04181563713992
H           2.04242306292706   -0.52489855092668   -3.53290968482070
