    26
        -50.47094752  Gyration_radius:  2.44612831196 Dipole_moment: 2.683
 S          -0.48500785288710   -0.69144435083126   -0.14594853214958
O          -0.97101261059336   -1.11793687387564   -1.55787334473498
O           0.71999053482959   -1.45596853399703    0.11411223506385
O          -0.17844265032522    0.75582572026679   -0.23187321482592
O          -1.53210029552862   -0.92590281838150    0.82601476655131
O           0.61846503234002   -0.91048279472531    2.70590975495788
H           0.72841459512841   -1.38434651406369    1.85875600567743
H          -0.33617764254158   -0.83226347154569    2.79748206896877
O           3.18486716204286   -0.44546424498180   -0.30254909160486
H           2.52237265768020   -1.14220596996563   -0.14872486276690
H           2.88962713849230   -0.05170331059673   -1.14911965984178
O           1.53821323763953    0.41103809839272   -2.26118126459359
H           1.16251175842218   -0.31404848933090   -2.76511675451656
H           0.85938421722248    0.64006199550402   -1.60079315927164
O          -2.83718451914101    1.31091514287152    0.36439814578873
H          -2.47742943740981    0.47663418290521    0.73332969368667
H          -2.05217326449883    1.79842538267705    0.09346624284683
O          -3.35031309307573   -0.13240191706271   -1.78372362907372
H          -1.88941971715043   -0.74806774205615   -1.71750583212096
H          -3.98273560588378   -0.80211380108546   -1.51419233459796
H          -3.31468922879401    0.52612365327783   -1.04401017439452
N           1.85702228072217    1.04341819830016    1.37272922583721
H           2.19167594085497    1.93757560949018    1.71382786271018
H           1.02016433442676    1.13118513878879    0.72939388773856
H           2.58306412924061    0.51620896876735    0.77538470676251
H           1.53091292880847    0.40693873122469    2.13780725788589
