    26
        -50.44654224  Gyration_radius:  2.43541123364 Dipole_moment: 1.062
 S          -1.86582000447998   -0.23872722701132   -0.03208741813526
O          -1.32946043175102    0.08387279232609   -1.33235394772723
O          -2.43069336561525   -1.54212583187539    0.08054256867301
O          -0.72981594133736   -0.09790514155301    1.02408799080562
O          -2.83212778475632    0.85161462037661    0.41978899864634
H          -2.23598630956329    1.68005635619294    0.49541121175018
H          -0.24971683513772   -0.98445578036857    1.03712362603701
O           1.03882861288920    1.15520405386085   -1.96714996313806
H           0.88633405590499    1.92268874174022   -2.52121800942054
H           0.15376981146135    0.78902964700994   -1.76724337476518
O          -1.20784665753225    2.77562316714057    0.67803537305552
H          -0.26094429888133    2.44101669005381    0.66232758719174
H          -1.32319584730933    3.18463765597164    1.53830601985455
O           0.29717138391724   -2.42719993328088    0.82758009709101
H          -0.54781545259964   -2.88773022002366    0.83458301297589
H           0.55238988344479   -2.35170827655235   -0.14965516194989
O           1.28001593406371    1.97174483287933    0.62263110147001
H           1.52504739909146    1.19317394265098    1.14948045177966
H           1.37566599960926    1.69395755197458   -0.30787594013144
O           1.97004922244689   -0.36992919126442    2.05042614762430
H           1.44732822687654   -0.31402927368357    2.85248784887845
H           1.73902081103371   -1.20705697236043    1.63289829089031
N           0.70229704497452   -1.94946721898064   -1.70839305639958
H           1.45267325418031   -1.28351584047010   -1.85632800451107
H          -0.16779665146445   -1.43503354631721   -1.83052144510572
H           0.76062795048126   -2.65373559851148   -2.43288397549957
