    26
        -50.45234086  Gyration_radius:  2.45924691958 Dipole_moment: 5.688
 S          -1.06936176264238   -0.19698880280745   -1.89340352111522
O          -1.50339554421215    0.61197378177273   -0.76473403335533
O          -1.52738964983473    0.23210483598064   -3.16248222317655
O           0.48539157842922   -0.20143816498380   -1.87032825347725
O          -1.45227600517211   -1.65147735440176   -1.64079754085702
H          -1.02283802186947   -1.92500657514432   -0.74533855958106
H           0.85800526548550    0.19813131545402   -1.01350624394176
O          -0.10797007254030   -0.12794193743476    2.28509943046705
H          -0.05275159780060   -0.31222577524730    3.22350045326880
H          -0.88867834045388    0.47292459716316    2.15434188677703
O          -0.30050127529214    2.91893021929448   -0.31379504237660
H          -0.83317609325020    2.13234597109659   -0.56440241166759
H          -0.23568698282758    3.46200001206475   -1.10026336424992
O          -2.07744153018802    1.51445943740419    1.70626499217774
H          -2.19263095236935    1.11057861152883    0.83012500223251
H          -1.69103674945482    2.37883530573148    1.53130377608285
O           1.41060062871406    0.88860894572857    0.25755806228715
H           0.96964477376260    0.49213050996839    1.03190771114361
H           1.00145773313684    1.76931853215126    0.15270551520001
O          -0.25210442031151   -2.21159907620581    0.49742442576803
H          -0.30559535223706   -1.49594903995580    1.15646989157554
H           0.69927209766814   -2.24914675868842    0.21790200954009
N           2.29548690555156   -2.02857790817512   -0.36578813790174
H           2.12722086596380   -1.87111100544896   -1.35264584440135
H           3.00242780448245   -2.74639675173682   -0.27191946679993
H           2.66332669664627   -1.16448291493881    0.01480147670067
