    26
        -50.45277837  Gyration_radius:  2.41717666268 Dipole_moment: 5.640
 S           1.47621501198288    0.91347220580320   -0.51489822112903
O           0.96848649667871   -0.30896531953395   -1.08406434513706
O           1.85799882768924    1.91845683711830   -1.44899098566465
O           0.37830050182025    1.46844093790748    0.44569362445872
O           2.61804343452320    0.61523206532900    0.45388306707510
H           2.35312415882054   -0.17815467822285    1.05853233546018
H          -0.56630524381782    1.38034163895982   -0.06244112642363
O          -2.00157506081474   -1.22763811806151    0.80018188261717
H          -1.52565600507689   -0.78066814734930    1.52576811878574
H          -2.85517953245867   -1.49231354484690    1.14648635039660
O           0.37711337355217   -2.60565005303118    0.13030209779059
H           0.65060430373010   -1.92452256001849   -0.51029825789946
H          -0.54587635018180   -2.39177096197513    0.32496517582116
O          -1.74729299447024    1.07713121174952   -0.74797003031832
H          -1.38579047635760    1.07964422808632   -1.68976966335428
H          -1.89972289305413    0.15266083909504   -0.48444289093720
O           1.79429577843383   -1.27833853888592    1.92062476436783
H           1.36418377531052   -1.92477275344490    1.30184749505089
H           1.06945446709902   -0.89549529579063    2.43577377553735
O          -0.49050432907887    0.18758270981159    2.61948598883569
H          -0.12561391538621    0.74750309823301    1.90088587734296
H          -0.75726260278360    0.78236867849770    3.32240318839909
N          -0.46030226476342    1.17641210844656   -3.03099269443531
H          -0.19374781280772    0.22955754316694   -3.27231738305134
H           0.37828486663468    1.62062514230521   -2.66144949312676
H          -0.73127549523249    1.65886072666904   -3.87919868043280
