    26
        -50.45499710  Gyration_radius:  2.39451585939 Dipole_moment: 3.869
 S          -0.18289741329671    1.14794482225130   -1.36489866859472
O          -1.34652216972513    1.12333718803127   -0.49601106863145
O           0.19528548262763    2.44158836247981   -1.81973652673235
O           1.00022864166899    0.52714448304664   -0.54950423144541
O          -0.36750747566632    0.16953828257215   -2.49557550100484
H          -0.53286530103531   -0.82633746271763   -2.10655742452487
H           1.46816701988685    1.35858546271177   -0.13299057658047
O          -0.39351540873838    2.19481248931232    1.83188536145068
H          -0.20930728011640    1.33114914002473    2.23867730120351
H          -0.94199265300515    1.99424831571028    1.05636235287181
O          -2.31505251124133   -1.10084914776460    0.47232544465158
H          -2.05456475762224   -0.21594859217091    0.12353148219449
H          -3.27207126748042   -1.10566304053674    0.52101880162338
O          -0.72284248575881   -2.06022724943882   -1.48650919056653
H          -1.38699972238567   -1.90209028947665   -0.78549683263309
H           0.13335601625019   -2.27498979110936   -1.00882579410539
O           1.76537330544716    2.69358858276789    0.41565814022776
H           1.43543079926717    3.20459226289932   -0.33571935851306
H           1.04891886649683    2.71053430032208    1.10307919884238
O           0.06881929773927   -0.56354068549325    1.89748936424395
H          -0.80831069424759   -0.90895340656006    1.68522011911498
H           0.45552970022456   -0.29391477967751    1.05310593770573
N           1.51479858989866   -2.43088109856850   -0.09894777709297
H           2.09221440591310   -3.24869658906932   -0.24439546600314
H           1.31009476861491   -2.35501394148432    0.89157861811384
H           2.04623224628753   -1.60995762807546   -0.36476370581889
