    26
        -50.45499710  Gyration_radius:  2.39450867755 Dipole_moment: 3.877
 S          -0.36555024894068   -0.48326118571434    1.68784613894474
O          -1.15581464388003   -1.21567559967349    0.71384534034673
O           0.11513867514079   -1.26431128530602    2.77517706398579
O           0.85409233234247    0.12109743158484    0.91488534554655
O          -1.11961491377134    0.73881771633215    2.14345171963107
H          -1.36020922456070    1.36812705722841    1.29700130362799
H           1.60168163452413   -0.59057852179456    1.05031257840147
O          -2.21281230260445   -0.05735331171300   -1.37554391544832
H          -3.07718805715859   -0.40370869909688   -1.60193188953946
H          -1.89532316940052   -0.57601347035588   -0.59925573373518
O           0.56272899780699   -0.26659631408032   -1.87983465597568
H          -0.38843255722512   -0.19006295374651   -2.03232016233179
H           0.70031014005369   -0.01949361603795   -0.95505540165791
O           2.34514882067538   -1.84122219173980    1.28486540980403
H           1.90712764095356   -2.08406320398505    2.11173720270657
H           1.91499772780226   -2.38054114208759    0.57046914454717
O          -1.59980318239246    2.09694055858368    0.13315445672598
H          -1.94636464098664    1.45042811045091   -0.51445303266520
H          -0.70283715126507    2.38060558832905   -0.21655555323668
O           0.71551752427605   -2.73593154318081   -0.57477442449231
H          -0.08619264639916   -2.44126639499020   -0.11326600832772
H           0.83021511132485   -2.10496832360572   -1.30561891656507
N           0.83124638240846    2.62162478095426   -0.80735548654267
H           1.41181363011091    2.21725583775478   -0.08179107976875
H           1.13495679713054    3.57294378089505   -0.96933693301852
H           0.98516731403955    2.08720690498967   -1.65565249096385
