    26
        -50.45526209  Gyration_radius:  2.41587350109 Dipole_moment: 6.800
 S          -0.80097849737883    0.72828980922142   -1.57692115197758
O          -1.21131607019478   -0.46776087080833   -0.88450866541420
O          -1.71438177000515    1.84457548542787   -1.36205106947282
O           0.57084004452746    1.12548600753327   -1.16771213893294
O          -0.75079901570389    0.42856273288910   -3.10552533905877
H          -0.13248914947518   -0.33288867436673   -3.14532718176674
H           0.33613982771484    2.26387917801879    0.10102421469142
O          -0.25273275725136    0.63359464902451    2.51337007798278
H           0.49031730198400    0.25655105779060    1.94759914076268
H           0.10202609105351    0.71685000600091    3.39988929044582
O          -1.32183428946254   -1.86896580664898    1.33973990497957
H          -1.51342362703379   -1.40470771761417    0.50272362308517
H          -1.14560235827791   -1.15976744578528    1.96848687742460
O           0.88962319371596   -2.66581741342190    0.05934343898743
H           1.00138438895096   -3.61696740301485    0.07702581371575
H           0.03459815990864   -2.47291043963154    0.51640415422615
O           1.15319522337907   -1.27412425756064   -2.40808715203907
H           0.92996906400433   -1.84910735916269   -1.65537434507566
H           1.45586721937325   -0.44779355904700   -2.01256109795429
O           1.61655255794197   -0.16313162816235    0.91369431072962
H           1.55106123767791   -1.10949966250804    0.70407898744111
H           1.30344225962305    0.28933305443512    0.10268245990304
N          -0.45391000856926    2.60221810654315    0.69949705448586
H          -0.36733868173063    3.57339811417897    0.97975428024734
H          -0.53179247598225    1.94303877773681    1.51472943076632
H          -1.23841784886335    2.42766526889100   -0.02197492807025
