    26
        -50.46788078  Gyration_radius:  2.39872774463 Dipole_moment: 5.647
 S          -0.89902852492007    1.56452766816182   -0.06190523829807
O          -1.28851568534213    0.15861496669200   -0.05832338479811
O          -1.78819206891830    2.38017672622610    0.72014041382404
O           0.50675134090974    1.68080545102268    0.39235716730097
O          -0.92547645351617    2.05604000689964   -1.54199841232893
H          -0.41123140103448    1.39633061612811   -2.06607169963371
H           0.53508485557593    0.68229392020934    1.53054859071155
O           1.41626136564627   -1.98641169942803    0.49405107826798
H           2.16519531713259   -2.55823485050969    0.66713608969393
H           1.77037139178084   -1.21907704605431   -0.04311937942863
O           0.37219836919483    0.17730612400728   -2.91949987242871
H           0.01848252190087   -0.65755486700505   -2.49350505377803
H           0.04102399679228    0.18492748386590   -3.81908013581903
O          -0.56163817657742   -1.84451023188348   -1.56318607786591
H          -1.00822295424993   -1.17424691449467   -0.99978357896178
H           0.10771681215888   -2.22206841338572   -0.97738254457155
O           2.23158960748771    0.10559350067774   -0.84029344586034
H           1.70004859894447    0.79939468410622   -0.39120845174005
H           1.90482100422981    0.10683113986708   -1.74900715882572
O          -2.21511662421440    0.45294225965148    2.48618576256742
H          -2.70284441131028   -0.14407944878477    1.91124462007315
H          -2.15022359715666    1.28337483617163    1.95903583486122
N           0.35691267806297   -0.13160201802117    2.21058440826956
H           0.60667621148079   -0.99565880127571    1.68754459118233
H          -0.68562878361505   -0.05742291964463    2.40471558934131
H           0.90298461955958   -0.03829216320007    3.06082028824976
