    26
        -50.44374412  Gyration_radius:  2.69618366623 Dipole_moment: 8.448
 S          -0.88477422919696    2.60901508691275    1.27253600174029
O          -1.18887484206779    1.99603120209412    0.00166043848618
O          -1.42142227584938    3.89481974898959    1.51796786955198
O          -1.28729342189465    1.60440779226197    2.39016250606677
O           0.65713466225116    2.66466260216599    1.43397963377613
H           0.99013139884936    1.75020918323001    1.23526248993657
H          -1.86982225339285    0.87957484874497    2.01311205990121
O           1.51862140251101    0.25584199357266    0.92997367297339
H           1.76942230195015    0.22918355417947   -0.05388992199226
H           2.33550365564366    0.14172357183392    1.41858662540640
O           1.99505565389051   -0.00946871183411   -1.58118595465441
H           1.97511010134778   -0.99421752374555   -1.64220731569506
H           1.14591445584504    0.27858758283451   -1.95031251057826
O          -0.58718604037841   -1.37916337038817    0.12373121994050
H          -0.71525123878200   -0.88433626498090   -0.70870170572587
H           0.11771700396387   -0.89386970101781    0.58320663730904
O          -0.71997290836633    0.36655786208059   -1.97872755741449
H          -1.41203113579841    0.50601277975306   -2.62643392611053
H          -0.87551549426017    1.03968501645952   -1.27735145464158
O          -2.62948725553748   -0.41528243175524    1.51985500174005
H          -1.93788854778414   -0.85509710279964    0.96457478724239
H          -2.79341986205136   -0.99242269294368    2.26840876951278
N           1.56255082060833   -2.70081253285714   -1.50185477643023
H           1.27278868793014   -3.11092948451386   -2.38055214745125
H           0.74698244510093   -2.65616765172407   -0.89580361900842
H           2.23600690548836   -3.32454534655143   -1.07599681386277
