    26
        -50.44439852  Gyration_radius:  2.513381341 Dipole_moment: 4.102
 S          -1.08190518002140   -1.29825493418781   -1.55050513866335
O          -1.65948335822205   -0.20313771518324   -0.80235866829558
O          -1.31903793963748   -1.27240873682758   -2.95101062290895
O           0.45767338573299   -1.30349629955680   -1.29581139965834
O          -1.50417438034150   -2.62157609217519   -0.90585981421653
H          -1.55019987750548   -2.43741757027702    0.08787644757188
H           0.82893794453628   -0.61537425003458   -1.93244031868068
O           0.46589559848661   -0.31390871119702    2.49678658732232
H           0.94935264320714   -0.51765173156970    3.29828677849325
H           1.15042293180286   -0.14801884919357    1.77613016813723
O          -1.66688969941697   -1.63551634640735    1.44522731784402
H          -0.85012841097530   -1.32724957783633    1.88685276333775
H          -1.96535321311087   -0.87187592255173    0.92857399178696
O          -0.61409166780441    2.18432492922284    1.94776379866853
H          -1.56837911203898    2.12514731209840    2.01548063016927
H          -0.26264611512796    1.32201245988224    2.23451996172968
O           0.02336140392964    1.89349315341582   -0.70433187456076
H          -0.67388174990207    1.21471398396296   -0.74721460304849
H          -0.09214735261742    2.28764837005852    0.17967340573870
O           0.94931356261009    0.61527882219527   -2.90692366657337
H           0.18295162913215    0.43758133981769   -3.46301033111259
H           0.70792929088778    1.33580074784055   -2.29634287238305
N           2.16222342133097    0.22963691229437    0.55736805598585
H           2.21362800534073   -0.59673560841564   -0.02564634760808
H           3.09735552811827    0.59482849319583    0.68368202727673
H           1.61927273158270    0.92215582142307    0.04323372359547
