    26
        -50.44589255  Gyration_radius:  2.50828136563 Dipole_moment: 5.191
 S          -0.37242800294635    1.82809204915470    1.37118517952347
O           0.15210213009303    0.51599199509813    1.69889751758812
O          -0.08341069186474    2.85238606555261    2.30518892243567
O           0.19359269948266    2.18588409766380   -0.04549619552372
O          -1.87261240137376    1.74094448167734    1.11722249609795
H          -2.10412863306206    1.01944543273203    0.41356361754114
H           1.19020533263084    1.90049129156954    0.03089772780747
O           2.46045145914136    1.20191679660624    0.28435478723828
H           2.26349910373083    0.88396113218274    1.17157205667647
H           2.34958377435769    0.39799491731070   -0.32411216506272
O          -0.38919959284175    0.80919569848025   -2.32753109896803
H          -0.14781365053882    1.40262928469412   -1.59183146490713
H          -0.64802939995173    1.37069870744376   -3.06043560671296
O           0.55478520394102   -2.03097376403431    1.22208563660688
H           0.86297399840054   -2.39838317205494    2.05211427874676
H           0.39898596273032   -1.07497763458216    1.39138409687546
O          -2.38622008622311    0.01254356283152   -0.64168018798542
H          -2.27729212898229   -0.91412527354900   -0.32772904602925
H          -1.73335337329530    0.14047105389496   -1.35409787768538
O          -1.95201463532300   -2.45280573035678    0.30210301501336
H          -2.47801033276104   -2.63533758241228    1.08221216423660
H          -1.01848986358329   -2.40593014146597    0.59248005558963
N           1.87633791131955   -0.88214433038618   -1.21067841477890
H           2.55649496356205   -1.37017515623089   -1.77802255284627
H           1.13279019105854   -0.55391427439222   -1.81794865461677
H           1.47120007229173   -1.54387950742997   -0.55569827689591
