    26
        -50.45220176  Gyration_radius:  2.46212542409 Dipole_moment: 4.502
 S          -1.33763333535597   -0.72410690249847   -0.95673516470804
O          -0.53190409924401    0.26705733297668   -1.64214522514130
O          -1.48248788866997   -1.95167642782571   -1.67053413035790
O          -0.68994303725808   -0.97703474577722    0.43435032068760
O          -2.68281285412366   -0.14948447979300   -0.57099640644579
H          -2.51543174818769    0.61092016799237    0.14422432508997
H           0.28811625657719   -1.16334693324379    0.36293726394412
O          -0.64977197357279    0.64783992805996    3.07090990194795
H          -0.54636992394227    1.22879334353345    3.82633863949819
H           0.21042450576334    0.66015014257715    2.59387955795015
O          -2.11085789983791    1.62990239205594    1.08065958445975
H          -1.70719417969387    1.16928436394759    1.85915043804791
H          -1.36400185188990    2.08534784087033    0.64754461469807
O           1.58931418801319    0.95269752565766    1.60631629288005
H           1.20597865931898    1.55034323675481    0.94530965998749
H           1.85478819475669    0.15797682196383    1.12791597367086
O           0.12820232177927    2.37404252604980   -0.29531959679843
H          -0.07464755684639    1.58735399896244   -0.86244723648873
H           0.25560731836800    3.11410674124862   -0.89058117909660
O           1.83324436427694   -1.49163487567922    0.11611096581900
H           2.03577428903810   -2.33682777166700    0.52241350811224
H           1.75050151520574   -1.65515910619444   -0.87946503884605
N           1.27596275947304   -1.90060669828967   -2.40177732333314
H           1.27595192590636   -0.98327494392234   -2.83207078539391
H           0.29350847295827   -2.14825258867763   -2.28420355864958
H           1.69568157710616   -2.55441091905204   -3.05178540159714
