    26
        -50.46972843  Gyration_radius:  2.47783288994 Dipole_moment: 4.089
 S          -0.46858188853364   -0.77049974908075   -0.11876124247106
O          -0.04980496271731   -0.96059710065734    1.26035597777731
O           0.00557266423476   -1.79341384789954   -1.02313591565457
O          -2.01686639511042   -0.78695932823807   -0.07475361909983
O          -0.06307006840943    0.57258100293171   -0.59497334759344
O           2.45282272291274   -0.37151872263326   -0.77427822452669
H           1.58595285174003    0.06442980796081   -0.84112939906821
H           2.28084578175074   -1.28438703451297   -1.02239007729474
O          -1.22083433955582    0.72439266871606    2.91345501500794
H          -0.95945213411914   -0.00033203937742    2.30086305738031
H          -1.24921924092310    0.33515261125468    3.78902743149079
O           2.39652836044637   -0.00810303311388    1.89194730243229
H           1.61573899965407   -0.59242608728500    1.90010855627032
H           2.75715688076637   -0.13002302962627    0.99058741619349
O          -0.26314309220617   -0.42560817404775   -3.25744418726452
H           0.01479351545015    0.42833122898714   -2.91378221061855
H          -0.05735488015028   -1.06291579032666   -2.53963655510187
O          -2.79151418879144   -0.63798191900027   -2.54610490830150
H          -3.08673491891287   -1.50938301674513   -2.81879431749187
H          -2.37185742273012   -0.68741470312898   -1.00334046583759
H          -1.90957119227687   -0.49856394980888   -2.97591395608772
N           0.68745621423040    1.92605433727208    1.50010389704036
H          -0.06307627242027    1.73881634288067    2.20057481439325
H           0.33083227448592    1.51730998303696    0.58379717807562
H           0.91979579646164    2.90939140203489    1.42057473558879
H           1.52358493469455    1.30366812038420    1.75304305468488
