    26
        -50.44589248  Gyration_radius:  2.50842980697 Dipole_moment: 5.197
 S          -1.80594125200582    1.42236467685630   -0.28740286412375
O          -0.96558017111322    1.22463637927218    0.87841276430676
O          -2.53598984817670    2.63526299625190   -0.31565056694547
O          -0.86255272688021    1.30670001288296   -1.53315650210847
O          -2.73914475963180    0.23050114465248   -0.46519355666818
H          -2.22350067797989   -0.66535616287381   -0.48830576480040
H          -0.03432647666335    1.86370924889807   -1.24153139220502
O          -1.43911170037798   -1.92477925240732   -0.56973894510541
H          -0.67019129652042   -1.75928819838855   -1.14541760715964
H          -1.07874115069120   -2.20801457405964    0.30149713676117
O           0.75723395868268   -0.14225206896753    2.30605666039286
H           0.11126854064422    0.36232797083985    1.76270513358805
H           0.75101704260204    0.26952901125771    3.17174198838984
O           0.48031216058932   -0.95562727337636   -2.25614326607331
H           0.01646433809617   -0.10755759741807   -2.12488924868224
H           0.38651863846541   -1.18001191788461   -3.18365544478787
O           1.10114861187836    2.46638469693418   -0.52679149872427
H           0.67021429745400    2.59150700096640    0.32513670635430
H           1.69669783958561    1.65306773034268   -0.41433457476964
O          -0.43030892680183   -2.52408199870313    1.83423098511856
H          -1.11557943990991   -2.59899592517336    2.50006099229013
H           0.08894381030552   -1.72253083696303    2.04877477009129
N           2.38606351000192    0.19635489655707   -0.18763282179759
H           1.98636037675367   -0.42377423228493   -0.88414218215587
H           2.07571541022456   -0.12285648988801    0.72497154516911
H           3.39300989145084    0.11278077267704   -0.22960243634786
