    26
        -50.44589250  Gyration_radius:  2.50835406683 Dipole_moment: 5.197
 S           1.11413073286355    1.03171383919307   -1.74824456187874
O          -0.04903525254316    1.47812526776488   -1.00510541778859
O           1.81649153168828    2.04240544662538   -2.44831884229894
O           2.04727234884502    0.31471728160528   -0.71364133881505
O           0.72727591838896   -0.10299206524920   -2.68932084610092
H           0.24773972144793   -0.87268035646128   -2.19217128432544
H           2.02055983136193    0.96149131217387    0.10001475150302
O           1.63196000944698    1.87204150458988    1.18795322480276
H           1.07259600133752    1.24600946091302    1.75731370747891
H           1.00108303626245    2.40657288138756    0.69456304905776
O          -2.83068523836468   -1.23446292003499   -0.62925725114809
H          -2.64261916288891   -0.42717439918392   -0.10864922200851
H          -3.38187338987608   -0.96870109486487   -1.36694439567080
O          -0.38948001835359   -1.97751064211508   -1.43088020814837
H           0.12682948560917   -2.11251131362277   -0.61518946388023
H          -1.30807317810862   -1.76547297709774   -1.14709969374158
O          -2.10218979883307    1.07374911174798    0.57458400972435
H          -2.62950027975532    1.87188065616248    0.51225752775816
H          -1.32949165873035    1.21416667263982   -0.01731267462187
O           1.39803717164728   -1.96590122679265    0.63566758700557
H           2.08251878265893   -2.63689774303782    0.61001392566239
H           1.75747536031477   -1.18165754094583    0.18026905618011
N           0.07887012526630    0.12873843861420    2.39922651934469
H          -0.84139009175404    0.31542606243983    2.01272053897147
H          -0.00523086676599    0.05892205938629    3.40459878042884
H           0.38672886878534   -0.76999770580571    2.04295251250450
