    26
        -50.45752793  Gyration_radius:  2.44716116003 Dipole_moment: 4.611
 S           1.04693401780350    0.73999529678089    1.35738411260554
O           0.13424738847265    1.40757490838719    0.46091626696334
O           0.46687991096022    0.42096034979474    2.62831561498089
O           1.58872734852895   -0.53168556133340    0.67941720670214
O           2.31862381094201    1.56307890223940    1.53259828399777
H           2.79635307977759    1.49135690376091    0.63381393229108
H           0.84735120284169   -1.25060942561032    0.49199703200848
O          -0.26837415638667   -2.12839940580190    0.20975280787571
H          -0.94456024828517   -1.80449708586831    0.84256483112053
H          -0.54845997786652   -1.83256273551360   -0.68540954002832
O           1.00567736199119    0.96927915858102   -2.02122997266149
H           0.50108643366719    0.17995863459593   -2.26185381249468
H           0.58922548915721    1.28526639243666   -1.19935886378840
O           3.33674384993090    1.10220952985368   -0.75453116208870
H           3.57222722017825    0.17667626941366   -0.64512964587947
H           2.55605171491977    1.10649109610672   -1.36226279268417
O          -1.75373328253276   -0.96168414849229    2.13366325432095
H          -1.92127377191929   -1.49585667767403    2.91320610923536
H          -1.01121985094081   -0.36739945747891    2.37537932429862
O          -1.05145905638365   -1.00672487111194   -2.09241480445724
H          -1.64100616606629   -0.38602756552555   -1.56589704785210
H          -1.60018856209555   -1.41622979009374   -2.76222740166144
N          -2.44300077394849    0.52096780261024   -0.44799516036994
H          -3.16252582484689    1.18803892347318   -0.69684152287534
H          -1.63826835343521    1.04663526233380   -0.10886773347141
H          -2.77605878446500   -0.01681269586468    0.34501070390931
