    26
        -50.46530935  Gyration_radius:  2.41653749541 Dipole_moment: 6.131
 S          -1.37605898914403   -0.68109720086062   -0.63304883340648
O          -1.14652208452823    0.40275124759684    0.35867173348578
O          -1.52894364856927   -1.95112092548155    0.02958139490286
O          -2.38439273287973   -0.32458343504822   -1.58658900449289
O          -0.01192050916258   -0.74065786334520   -1.45523155824913
H           0.67368052375760   -1.11501327880518   -0.86420636388825
H           1.07263112432781    0.87865810640492   -2.66784804223452
O          -0.78604092459502   -0.10633706593890    2.93857196195574
H          -1.61932558138627   -0.26089837160960    3.38595552003213
H          -1.01402964256357    0.10594751072752    2.00791962836569
O          -1.48057907898616    2.10461689233088   -1.91447392466910
H          -1.76669146082601    2.48590922991776   -1.08211654729361
H          -1.85972489155582    1.19547640745508   -1.91533594126306
O           1.10483759403924    1.76704068948982   -2.29810346344324
H           0.15354533218295    2.04201393784579   -2.26481335822759
H           1.36283158826830    1.53868900367037   -0.77500985863431
O           0.26513128332596   -2.37795545531199    1.89952545481882
H          -0.47165636157836   -2.40950665229658    1.24677250377495
H           0.01541466521185   -1.65019000640198    2.50173367572774
O           1.94222210914924   -1.42529477341351    0.24279379118623
H           2.54607689494303   -2.11690709119715   -0.03028803102813
H           1.35242332160150   -1.83682418762908    0.96563192478934
N           1.29258905713922    1.22306194005255    0.24916947628791
H           1.57174805850151    1.94175341785147    0.90777928444355
H           1.83410723933868    0.35599405397723    0.37971095608070
H           0.25864711404109    0.95447386998809    0.37324762095369
