    26
        -50.45043519  Gyration_radius:  2.52525052137 Dipole_moment: 7.530
 S          -0.02519152130399    2.60564654515792   -0.22018854479221
O          -0.64402972919250    1.60310866449908    0.62355061875579
O          -0.13493908264812    3.95217982546946    0.19391760910514
O           1.46403022451636    2.21379918248230   -0.40838932291728
O          -0.60167981388317    2.46402857315092   -1.64833609577920
H          -0.65026421924546    1.49651695425596   -1.89640381681456
H           1.71535150089565    1.36552535913365    0.06811394001911
O          -2.30251667714303   -0.38223030769222   -0.14276608223301
H          -1.91037406676245    0.41196053301445    0.26226210607921
H          -1.92806743413645   -1.13091676529979    0.36360671906053
O          -0.91818706571548   -0.03300797667067   -2.28120112958252
H          -1.48790436800718   -0.01323945174422   -3.05241749016263
H          -1.51607416911450   -0.24555340941311   -1.49392143854973
O          -0.96268099779305   -2.20061010470925    1.38265622388658
H          -0.50955475677660   -1.46816989547387    1.88046497921807
H          -1.45455388245724   -2.70095588222247    2.03481343146636
O           2.28275980956795    0.02675607940297    0.66766166541102
H           1.82150413207941   -0.68807457474127    0.09742820426459
H           3.21718832475436   -0.00220231436338    0.45588295773319
O           0.21623860513698   -0.13202965575221    2.52168257378530
H           1.12540270018182   -0.14361962616113    2.19487128234911
H          -0.20532506100107    0.58553088099123    2.01808765982079
N           1.02663625310571   -1.73463436349573   -0.77350509432912
H           0.34312794527682   -2.13898633332866   -0.13909809316133
H           1.52332295983043   -2.49150589862976   -1.22487282153875
H           0.51578037981239   -1.21931603784887   -1.48390002110468
