    26
        -50.45043700  Gyration_radius:  2.52679580608 Dipole_moment: 7.547
 S           1.28308664942006   -2.01169711838995    1.08367683604654
O           1.61433432062397   -0.72812016283898    0.49830524192589
O           2.31335960822500   -2.69336227559285    1.76931296407020
O           0.05744288264522   -1.80786714086228    2.01215109120199
O           0.72566244744117   -2.92609857624868   -0.03290662650475
H           0.10685766536386   -2.40766436181690   -0.62314421274244
H          -0.29644652413851   -0.86756389522462    2.00184383856035
O           0.22305813483270    2.50465207939860   -1.16520179678742
H           0.63812304708519    3.30165954638119   -1.49695816476277
H           0.61119904978786    2.34597604935436   -0.26310558934595
O           1.22976121306011    1.86595338624458    1.18946532146648
H           1.59030894541346    0.98878688981207    0.97320201028003
H           0.46587292120036    1.67304571464586    1.74877705657119
O           1.15709198342865    0.09466045429823   -2.03044426958719
H           0.81449270596780    0.99582789902565   -1.86405043867136
H           1.56537688838379   -0.17491092234077   -1.18832812907401
O          -0.74859100277543   -1.60124122725176   -1.70822647511341
H          -0.03568160243292   -0.92063704004527   -1.93397574957267
H          -0.81667547469576   -2.18023907155364   -2.46975910599744
O          -1.03798997620321    0.51822626677042    2.06810248257337
H          -1.75977760495371    0.42204596684387    2.69145687380884
H          -1.45359886068445    0.61304384787104    1.13676834838834
N          -2.00991295212009    0.73054760727191   -0.33306372230874
H          -2.97997971761144    0.97421656007980   -0.48423660442911
H          -1.82441075956314   -0.14988644270564   -0.80379469222632
H          -1.43296399771422    1.44064595684256   -0.77586649779943
