    26
        -50.44865648  Gyration_radius:  2.46380116577 Dipole_moment: 4.925
 S          -0.01546586655476    1.38129087876328   -1.54654181156061
O          -1.06635705578346    1.06553787422213   -0.60610681566158
O           0.28509831718025    2.76447265611050   -1.67712077129944
O           1.26579320740822    0.60724446427570   -1.10891640505547
O          -0.34259065790887    0.73950880507492   -2.89650197642034
H          -0.31745835680298   -0.25560733337274   -2.72312922027634
H           1.73631447089239    1.25452493382359   -0.45736685209037
O           0.02457462220236    1.40370414020564    1.86034627338860
H          -0.50764931993057    1.38846285261503    1.04842584839789
H           0.38141805912291    0.48753336201211    1.94437567173524
O          -2.58515350662047   -0.46721315199893    0.98157589430786
H          -2.30221835104521   -0.11063751679520    1.82812183680226
H          -2.23602645369234    0.14631256155161    0.31217221407480
O          -1.15031194231152   -2.50706067819893    0.10675922970939
H          -1.72689518396594   -3.25817936266984   -0.04396979049869
H          -1.72915494693743   -1.78043227746063    0.45181438366071
O           2.04003877978283    2.37099966076142    0.49843039105861
H           1.36047053529042    2.15166276705435    1.19474520038798
H           1.67780022980701    3.10064403925424   -0.01806779085038
O           0.01181189215371   -1.67972634761772   -2.16454688236259
H          -0.47281537910277   -1.96393241244058   -1.35318382934582
H           0.91641140342330   -1.51407997320323   -1.88434191830361
N           1.06852734142039   -1.10130155911642    1.64580283185596
H           1.79212094913165   -0.91088075092140    0.96338474733087
H           0.39801508079703   -1.73008615057489    1.21613354004762
H           1.49370212202510   -1.58276144136007    2.42770600098701
