    26
        -50.45335474  Gyration_radius:  2.50746529503 Dipole_moment: 8.534
 S          -1.86516576768379   -1.54049730659246   -0.48271362244922
O          -0.91171898460684   -0.87699181733610   -1.40545515915332
O          -2.54465036115319   -2.64724377298439   -1.05773291958455
O          -1.13066641979276   -1.87940641444601    0.76301903718329
O          -2.91391910444564   -0.45177628146291   -0.08829430274864
H          -2.43382918378091    0.36664546572032    0.17377311137906
H           0.34661467049331   -2.13375258973005    0.33009615846548
O          -1.67498927007105    1.83401646272608    0.50261597846465
H          -2.34943519920376    2.51376809236565    0.46671519462501
H          -1.16240803033037    1.89336426035908   -0.36303041077063
O          -0.40999924045019    1.71289011142317   -1.73729632624898
H           0.55639933880547    1.70886086324231   -1.61384649079412
H          -0.65436074103621    0.77143219393947   -1.83847015730355
O           2.21808282943335    0.08068734041376    1.25308387217757
H           2.80065022942519    0.00377763408272    2.00937361847157
H           1.28537834047879    0.18146058303600    1.63002339294226
O           2.25977980236366    1.54995393945488   -1.07224294823938
H           2.29589649929942    1.09719562117893   -0.21242520177836
H           2.70881603014757    2.38959347948901   -0.96594870386696
O          -0.19987422619310    0.18328620803856    2.12515984738154
H          -0.69629809254350    0.92117661838416    1.74049536587755
H          -0.61786697138260   -0.62492588651642    1.74865966191467
N           1.14932477894562   -1.85915442943207   -0.32269513729890
H           1.65322357333035   -2.64649339810220   -0.71337698738076
H           1.76768964273429   -1.18335832524202    0.16727035623730
H           0.52332583721253   -1.36450866201782   -1.03675723750307
