    26
        -50.44245777  Gyration_radius:  2.74370816467 Dipole_moment: 9.262
 S          -0.94851156200620   -0.33028792180596   -2.72244479269097
O          -1.09906629020610    0.81383195626741   -1.83962007854562
O          -1.45244887209972   -0.17954466235259   -4.03481596054903
O           0.53991587156910   -0.74300062478128   -2.70776077679566
O          -1.65568772874537   -1.53667077118468   -2.05375633369188
H          -1.10954569667005   -1.85085377785413   -1.26300471960750
H           1.05342827243451   -0.04302258811027   -2.17016021913619
O           1.29235551617981   -0.11239445631839    1.14320212450997
H           1.87058831283525    0.43985580479109    1.71294251086204
H           0.39790431959454   -0.04329486011125    1.50662035414656
O          -3.04030173839604    0.21748488309990   -0.14426883768848
H          -2.38985954201107    0.60253478967048   -0.76773103609578
H          -3.39394847973587   -0.55150967589605   -0.59910783983751
O          -1.42689631835854   -0.49458048706933    1.81319404831410
H          -1.95342156518336   -0.73418828292299    2.57677536814369
H          -2.06128382840689   -0.14487641311953    1.13480658006267
O           1.46317971075122    1.08366936366340   -1.22345411700057
H           1.47956528530314    0.64408968527123   -0.33809079049326
H           0.57715103868398    1.46987589602676   -1.30400317364961
O          -0.29370417194243   -2.19425858380215    0.01543224632306
H           0.60693463076463   -1.85078165181253   -0.00345508519557
H          -0.73098940334530   -1.71671338450353    0.74951564519258
N           2.89440288271476    1.62803757981635    2.53393453540799
H           3.31016090631715    2.16206327421879    1.78007052772001
H           3.64440237970406    1.18709825149442    3.05168247322612
H           2.42567607028498    2.27743665733238    3.15349733707026
