    26
        -50.45007692  Gyration_radius:  2.50579360108 Dipole_moment: 4.974
 S          -0.41176519807445    1.33132473114624   -2.01627913469817
O          -1.60857094932562    1.37592879067580   -1.20478396928614
O          -0.54985149702631    1.63990760945259   -3.38896088993512
O           0.66594339526807    2.24591908475681   -1.39723540547317
O           0.21733803560668   -0.08302151911756   -1.81570054705685
H          -0.55072707486419   -0.69235497819901   -1.53227590607916
H           0.77671264499538    2.04260340752760   -0.42269776771930
O           1.25563981159871   -0.93900618562878    1.70670546339972
H           1.33020284644022    0.01805375851908    1.58376245102898
H           1.67648389086270   -1.33891535924340    0.90761666827843
O          -1.64108096810358    1.43210703824193    1.47122886377204
H          -1.70371568528845    0.47944250384712    1.66113147769735
H          -1.82898144951754    1.52340038498739    0.51755802891352
O          -1.83686416719345   -1.30847331165235   -1.00220251069982
H          -2.33221636272834   -0.48329371862813   -1.09811837813931
H          -1.68955579779722   -1.42032022510458   -0.03578328178774
O           0.88060067161262    1.79670757292114    1.14586787106168
H           1.18074901002530    2.59963607121163    1.57569486322744
H          -0.10016464740683    1.69668865636901    1.37488796523658
O          -1.31061118293286   -1.29658018131405    1.62586899626474
H          -1.55352296284971   -1.97646763202578    2.25499552054049
H          -0.31097205083905   -1.20554577371334    1.68049090742772
N           2.29989595731700   -1.81760438278671   -0.63427233085516
H           3.27923416525075   -1.63212628900122   -0.81065901203356
H           1.75311181981566   -1.21342324525251   -1.24108164801455
H           2.11268773541141   -2.77458679831985   -0.90575830507112
