    26
        -50.45335476  Gyration_radius:  2.50747384149 Dipole_moment: 8.532
 S          -1.73961782934758   -1.58548216673105    0.73814410751727
O          -1.53653341414286   -0.93688538682282   -0.58051408193980
O          -2.59140406918586   -2.72116702682149    0.69415552274348
O          -0.40099777195141   -1.87185864818165    1.31460934658897
O          -2.38784882361543   -0.50168987689532    1.65788861428747
H          -1.87233825063387    0.33249716923987    1.57204003033385
H           0.54324968860539   -2.11618912410705    0.09683152191696
O           1.13997518539415    1.55154229417915   -2.22541808722803
H           1.53764746387248    2.40163956883037   -2.41791420188607
H           1.69104571741620    1.12702080012537   -1.54593961145265
O           1.08718586791471    0.24879148630613    1.82911143027696
H           0.43589932073209    0.96563694219368    1.79994884448660
H           0.55390824537944   -0.57789958371399    1.78583092302758
O          -1.11355799394652    1.82186425986480    1.36462688039847
H          -1.21301277216900    1.86143926088132    0.36254065246225
H          -1.70076303314298    2.48894676860508    1.72298117335764
O          -1.41142479343483    1.64875381468028   -1.18747266424054
H          -0.55888088829777    1.66456471580547   -1.65876317042033
H          -1.63776574229734    0.70063403769368   -1.10919391594670
O           2.52603011806275    0.15716052876298   -0.30136552210054
H           3.44480528513345    0.11472582420080   -0.03431164237321
H           1.99290785799720    0.25500659100517    0.55208610854454
N           0.79660422420229   -1.84999351017948   -0.90860750673015
H          -0.14570118368402   -1.38896325314257   -1.12290270846547
H           0.99783330016977   -2.64137437664096   -1.50834691237557
H           1.56275430097132   -1.14872110913906   -0.89004516078667
