    26
        -50.45413109  Gyration_radius:  2.48905695257 Dipole_moment: 1.851
 S           0.47337847795418   -1.08144162530058    1.33609918109002
O          -0.56567554826561   -1.04180596974369    0.33309456819932
O           1.50958208990624   -2.03110992830886    1.09106056115328
O           1.07297733975842    0.32541335233176    1.49142262944814
O          -0.14895558591218   -1.36592860722073    2.70772385664256
H          -0.78707020456127   -0.60719808652348    2.91524445201549
H           0.72929775909753    1.01647496129058    0.81961572505743
O           2.76325921748704   -0.85171675306644   -0.96772672660019
H           2.35540630257250   -1.29490809739154   -0.20176463850116
H           3.40111551758612   -1.47050140550170   -1.32786912496646
O           1.13210915365269    0.91306388483344   -2.27348351822748
H           0.39751525992211    0.29959146700248   -2.52289883114583
H           1.81947565896725    0.33574114755745   -1.89538682919468
O           0.31911026344237    2.08387414825231   -0.17199155269747
H           0.90197724175114    2.83390888697916   -0.03853800487820
H           0.61166322734007    1.65520237013994   -1.05869428352903
O          -2.17023021194243    1.06783758421289    0.53370986537966
H          -1.54667423508790    1.74076252769956    0.22918168724522
H          -1.73211121143488    0.22252582235650    0.31539118279067
O          -1.80117566425534    0.54945495395868    3.06991570966944
H          -2.01147816872532    0.85595102071720    2.14398699215855
H          -2.62476668939162    0.22761295685407    3.44272226080123
N          -0.84102805053954   -0.90307431210156   -2.56077827726065
H          -1.78363701798366   -0.59424508717716   -2.76244471551045
H          -0.79659290271996   -1.12836221496642   -1.56920396419754
H          -0.67747198860646   -1.75712300689278   -3.07838820493969
