    26
        -50.45051051  Gyration_radius:  2.44941328728 Dipole_moment: 6.552
 S           1.37068477865621   -0.74450036817133   -1.49572168938860
O           1.77011304094282   -0.33536985802222   -0.16411344054044
O           2.32628428921929   -1.46559874548779   -2.24653120938522
O           0.07915535447778   -1.60590348073707   -1.34318117137857
O           0.86901239909231    0.49896717575273   -2.25064427013346
H           0.76302570412806    1.31954875542940   -1.61876988738365
H          -0.72080838734912   -1.00431258129577   -1.45642529051760
O           2.29321270339262    1.92108555074180    1.20846616254666
H           2.42688759796295    1.07355460921513    0.75221590705775
H           1.85771411800609    1.70136940592304    2.03630271962178
O           0.50142918095526    2.43997545276371   -0.70187882780343
H           1.22834237119066    2.42870671702430   -0.03592635427330
H          -0.31058527836783    2.23142003504396   -0.20349259077291
O          -1.59483075241038    1.39668081047764    0.68133324558415
H          -2.26272248966601    1.70822148334510    1.29253578524329
H          -1.00909173968550    0.75026476111051    1.19267739832352
O          -0.02352025739306   -0.28555966276816    1.82085752566596
H          -0.46067290930147   -1.16738199904061    1.77043922805747
H           0.69984130692331   -0.34192729991128    1.16552325347702
O          -1.86301085555163    0.04747385028613   -1.61285990395837
H          -1.53210145067526    0.64268797335287   -2.29187992664676
H          -1.89193849585471    0.56048760077821   -0.77541650945873
N          -1.07558217373726   -2.71195789119810    1.20798588273166
H          -2.07290805157362   -2.85599985533557    1.11125167958237
H          -0.69090171154360   -3.51854404976500    1.68345723663613
H          -0.67702828181227   -2.68338837953554    0.27379502713669
