    26
        -50.47070320  Gyration_radius:  2.47433174763 Dipole_moment: 5.451
 S          -0.86558053629998   -0.22899523167909    0.76419767649885
O          -0.94255429886428   -1.11670572650260   -0.41366889973634
O           0.33902440391732   -0.52481903708255    1.52602325238898
O          -0.93344936487913    1.16183916640489    0.34711381515813
O          -2.07039305917097   -0.53904031947733    1.67158888002030
H          -2.82910999747801   -0.01796860377020    1.27518791163205
H           0.49063303689163    1.62844372130486   -0.42255235127582
O           2.52764981905709    1.05896896196772    1.54723976587401
H           1.68063339976715    0.61104897290453    1.73053148626894
H           3.19294763500833    0.36704545843919    1.57163228762903
O           1.39512147781953    1.63879332354391   -0.80867441106050
H           1.97712735177237    1.66231359407681   -0.01946528053915
H           1.51472651694630    0.20527482824343   -1.31922773914461
O           2.38653830152405   -1.98663173727358    0.75253615735621
H           2.27877127746817   -2.89916678932681    1.02411994262516
H           1.62451520112184   -1.49632886855535    1.14364468638728
O          -2.55511331852267    0.42809143316048   -1.85043504929959
H          -2.01901001166848   -0.26446661384348   -1.41478656933438
H          -1.99694587445495    1.21089937615867   -1.85343714783648
O          -3.76227272920791    0.98052187776381    0.46817073444005
H          -3.30055474502484    1.80561514495329    0.64513497943774
H          -3.54041205491803    0.75268998712414   -0.46539024435289
N           1.40612390023656   -0.86236590952616   -1.47979517805175
H           0.40807377168584   -1.07012029391533   -1.17019541785252
H           2.01774203363686   -1.37088668813217   -0.80773822706161
H           1.57576785366463   -1.13405000697355   -2.44175507018576
