    26
        -50.45413111  Gyration_radius:  2.48911516142 Dipole_moment: 1.850
 S          -1.36898430603312    1.03601039360117   -0.47951608027456
O          -0.37957638752193    1.02205254276064    0.57315342400333
O          -1.14502055174946    2.00545201102987   -1.50212349506187
O          -1.46381249201256   -0.36890923580490   -1.09595632131932
O          -2.75860192801223    1.26282434978502    0.12633782232535
H          -2.94646747080387    0.48967361316073    0.75314654839304
H          -0.77075083837356   -1.03812941036279   -0.75106054309444
O          -3.07165655487593   -0.68339099229566    1.75233984901173
H          -3.46706120294322   -0.38480401464737    2.57414980084818
H          -2.13796115530469   -0.95804215114191    1.97202409461870
O           2.32156264510135   -0.81434099015800   -1.11047184030130
H           2.53763694394031   -0.20018971121330   -0.36593436902632
H           1.93129510498735   -0.24405798587822   -1.79692274391944
O           0.25481304246777   -2.07208139091914   -0.33941922907523
H           0.15725933376457   -2.81962816755861   -0.93251547947553
H           1.12868044402800   -1.60727903662418   -0.61501916238314
O           0.97210226643954    0.91756503733122   -2.74113604193230
H           1.31746307812104    1.55679763910123   -3.36687647463433
H           0.18484323264454    1.32721848881109   -2.33876649497559
O          -0.52317117534297   -1.11219070718035    2.15096321498444
H          -0.18506451757832   -1.76604064774995    1.52443774335323
H          -0.33056115935118   -0.25429793148360    1.72541190550481
N           2.51347577017634    0.98865786352735    0.88609250526270
H           1.51473318940170    1.17685415719612    0.83082674061675
H           3.00041489281480    1.86348289038917    0.73897604037028
H           2.71440980601536    0.67679337632793    1.82785860617813
