    26
        -50.45018998  Gyration_radius:  2.49713513754 Dipole_moment: 5.271
 S           1.93806957069260    0.74361102335119    1.23385346090258
O           1.47343936978503    1.85946620899600    0.44063312732766
O           2.81034820584960    1.02956620221866    2.30919544120989
O           0.66789513143758   -0.01846839030008    1.73171557390048
O           2.59314388169698   -0.30838842777053    0.31705918752179
H           2.02859446323176   -0.48113772585159   -0.49554100623527
H          -0.09351768885022    0.65803792863476    1.70918008768597
O          -2.00450045462570    1.07295781623233   -0.97407135466652
H          -1.16298560444520    1.37226844797788   -1.42569961736592
H          -2.72724403285927    1.50040922361334   -1.43502575928002
O           0.30656257683226    1.76294658452343   -1.97312497378042
H           0.79753967639675    1.97894608020512   -1.15778037643016
H           0.68775950086651    0.92354534488375   -2.26638263927777
O          -1.04335547775952    1.81799526740000    1.42917043402372
H          -0.32603052847980    2.38470849174670    1.11137913738489
H          -1.54160115916261    1.54425231310867    0.62798044799712
O          -1.17576695629062   -1.57389716751883   -1.12349450692797
H          -1.63986859275477   -0.72492463115807   -1.03814175704810
H          -1.14383877427995   -1.96244948875871   -0.21455293619654
O           1.19352535256090   -0.84935425637232   -1.77966730893948
H           1.61722146935773   -1.58212330073203   -2.22949489931646
H           0.26206270665380   -1.17041376810847   -1.52846437627676
N          -0.94181966100099   -2.46154929844511    1.41835036015735
H          -0.28767272299287   -1.75085683507735    1.73422999641780
H          -0.51972265150573   -3.36725246857396    1.57925404977153
H          -1.76823762039278   -2.39789514416786    1.99944022745323
