    26
        -50.44667600  Gyration_radius:  2.4978592303 Dipole_moment: 4.876
 S           0.88486480418956    1.01217690946272   -1.92029023739888
O          -0.04167938292923    1.34261459214184   -0.85335436203851
O           1.63581112772256    2.10303155772072   -2.42577252752611
O           1.81925846646018   -0.12038151556452   -1.40122048042191
O           0.12961004660255    0.29541057528522   -3.03628733171558
H          -0.21656021039012   -0.55901064385954   -2.59399282596638
H           2.07034175625502    0.00665317806212   -0.43640416603171
O           0.39122876361458    1.61819543615628    1.78335928805070
H           0.17656055644849    1.74949577215693    0.84229218610147
H          -0.32531160238713    1.05230975770420    2.12167421544251
O          -2.57053066288508    0.78262014762257   -0.22807821310235
H          -1.65955541557312    0.91406641456417   -0.55935691045529
H          -3.03501899363433    1.60240949144371   -0.40472361613754
O          -1.78288526540967   -0.03191144476683    2.19335255089135
H          -2.16454650690907    0.22381773479315    1.32212219487856
H          -2.49809000385870    0.00650167075218    2.82935201860226
O          -0.51109769181122   -1.84427710332661   -1.85346899091472
H           0.12103496615615   -2.47546798524414   -2.20384043478835
H          -0.32808764270933   -1.79468010850724   -0.86017820415993
O           2.42696846222376    0.17798313315108    1.08533512966345
H           3.21914084607355    0.71267770116378    1.16369219897033
H           1.67632048757828    0.73151476529129    1.46068626019931
N           0.08377751514804   -1.87685633607104    0.72461199754290
H          -0.57753199917791   -1.32247848970483    1.26070697692780
H           1.00646985712284   -1.49045740622620    0.88689208421031
H           0.06950770205987   -2.81595781421439    1.10289119915331
