    26
        -50.44651453  Gyration_radius:  2.47404149155 Dipole_moment: 5.776
 S          -1.74081942703574    1.20313343570565   -1.30083791914375
O          -1.30329507942584    1.89341088909736   -0.10782091324555
O          -2.06734510779606    2.00698512273716   -2.41812474823285
O          -0.65932964778449    0.14271511597616   -1.65849155234141
O          -2.92412324299421    0.28871318619942   -0.92519191776460
H          -2.61761881042187   -0.16276338426429   -0.09239281728264
H           0.30884896967002    0.46838614491825   -1.51182663832805
O           1.01415287186617    2.42279816933639    0.92117562910683
H           0.10326191358239    2.33197278422419    0.54892680763878
H           1.12902625145338    3.34920686881384    1.13647854666735
O          -1.99555521333181   -0.79742547278930    1.24192424386512
H          -1.07567260589488   -0.49343329384395    1.47023880298479
H          -2.55025437707333   -0.53439084762535    1.97862417182338
O           0.48209988295551   -0.12658395648856    1.84429786367699
H           0.69105659991713    0.81123167979114    1.71330962726318
H           1.06049933159570   -0.62063719813001    1.24961546845560
O           1.71828176124959    0.78685978205143   -1.12452313276690
H           1.65996461368045    1.45177046646288   -0.41370695993230
H           2.01505256872314   -0.05343981468828   -0.70759581743963
O          -0.49186643415343   -2.44426345968592   -0.57220266847013
H          -0.62760366363644   -1.71675167049427   -1.19414397255963
H          -1.12634553594702   -2.29341893065730    0.13656900805700
N           2.22368403301440   -1.69198058875414   -0.03205255979520
H           2.84740659206473   -1.97323803458323   -0.78075594151104
H           1.32661908064876   -2.15194060767291   -0.22009173508287
H           2.59987469508318   -2.09691641562118    0.81859912438706
