    26
        -50.47166723  Gyration_radius:  2.38847777249 Dipole_moment: 3.168
 S          -1.04959959471693   -0.75754805261324   -0.58467513373731
O          -1.40925751882751    0.40576990026042    0.21927538539604
O          -0.90417398079246   -0.41183446223549   -1.99017477655613
O           0.17113165368181   -1.39201610706299   -0.07953638947893
O          -2.20214913874832   -1.78916886365747   -0.46271275018352
H          -2.12302022169450   -2.10307103001617    0.47288091709592
H           1.79534815302877   -1.11016505941766   -1.32968748480083
O           1.51290874238981    0.39777868908964    1.40024869530226
H           1.05717153489485   -0.31125956246331    0.90809961568491
H           0.91713521928015    0.61154737551364    2.12740529652197
O          -1.02605863115446    0.29796110868374    2.80092132924164
H          -1.65323454906436    0.85970402964892    3.25846478430388
H          -1.19932801333031    0.41891213662093    1.83791975738118
O          -0.52937005615630    2.39291240896914   -1.30969380932162
H          -0.92675776544820    1.77275103705039   -0.66636839605297
H          -0.81938256862581    2.06753028126747   -2.16519176091383
O           2.01809913581413    1.82279512804080   -0.79732095245477
H           1.95531864940441    1.46771811072888    0.11887357193109
H           1.14001452782619    2.23519193511485   -0.97480507346906
O          -1.36790552650831   -2.30765748773775    1.95709790869344
H          -0.52012981985670   -2.31797695838700    1.49134521223124
H          -1.34411555277896   -1.49530146726756    2.49506933437765
N           1.69056419969966   -0.38679795256465   -2.04553255785157
H           2.23768984242799   -0.58437527030355   -2.87660443344148
H           1.93591070509716    0.59251874723031   -1.57410391184576
H           0.64319055412335   -0.37591860446909   -2.23119439801971
