    26
        -50.44294277  Gyration_radius:  2.67657089754 Dipole_moment: 7.693
 S          -1.68787867301130   -0.88798979126798    1.88134684536258
O          -1.61532478912547    0.53758934528789    2.09701057372354
O          -2.96299613899428   -1.49720624591806    1.93202565245813
O          -0.98479948495107   -1.17953959085554    0.51431709056911
O          -0.72375412694850   -1.59127595302563    2.85963214601003
H           0.08076024411746   -1.01023648108869    2.98423049234870
H          -1.46456464560669   -0.61009593244028   -0.22983441466021
O          -1.93218890081564    0.34129226997128   -1.21404670960562
H          -1.57806733910955    1.18210321741686   -0.87654400593535
H          -1.44264543447844    0.15560549187568   -2.05647603637528
O           1.30760159539821    0.27765506603763    0.37143772502285
H           0.60172081498248   -0.39396979745912    0.33434806860212
H           0.83162165269855    1.12452197530976    0.29448999423596
O           1.45762956972894   -0.19279260373555    2.99045474351381
H           2.19099565080798   -0.77960795957171    3.18593347562658
H           1.54759674955536    0.07844360389665    2.04683042536818
O          -0.44584954446828   -0.24764208807319   -3.31919715460878
H          -0.61817262238150   -1.13732029567046   -3.63006604169928
H           0.49905424239545   -0.22849537121304   -3.01621508569966
O          -0.63112266150990    2.19570705643343    0.35505746033738
H          -1.03127452373191    1.64017286681126    1.07074250072976
H          -0.78087497157400    3.10630527416725    0.61259342425286
N           2.10034905498221   -0.24160303643300   -2.41844308131330
H           2.00877861908820   -0.04483705840371   -1.42299591431050
H           2.64694468397825    0.50408776599052   -2.83039220660495
H           2.62646096926596   -1.10087174791696   -2.51623995729665
