    26
        -50.46497813  Gyration_radius:  2.42963084871 Dipole_moment: 6.229
 S           0.12296787341014    0.88603907993283   -1.23317118749629
O          -0.89031699708922    0.54767302359322   -0.20143687177068
O          -0.09296879423441    2.18155656269314   -1.80394326109898
O           1.48715399538141    0.92580501879727   -0.41376071766871
O           0.26939118186995   -0.21661708759008   -2.15231114815521
H           0.37740523384361   -1.88817254669243   -1.96420635592165
H           1.51350203244553    1.89134822584276   -0.10443212977033
O          -0.64429123085351   -0.98232004882673    1.93997343949960
H          -0.77692921537499   -0.30965358639294    1.23321045392962
H          -1.34961292643538   -1.62041348755603    1.79749031908920
O          -0.95688453989750    2.52282190188615    1.58641119629382
H          -1.07272537095210    1.87069767595085    0.86628528556226
H          -0.99246866596180    2.02876954822540    2.40781338352313
O           0.31824155613199   -2.72768474606730   -1.45202749701162
H           1.09853150621032   -2.19712013635061   -0.27889442573887
H          -0.60697955882434   -2.71782393449944   -1.13525183972345
O           1.17718039518541    3.36165048900707    0.17732050624764
H           0.70338367674471    3.38830010113072   -0.67408096787167
H           0.46986980056245    3.30943432208560    0.85060040779222
O          -2.06279099851795   -1.81652852489169   -0.55887736101311
H          -2.74991743251626   -1.78336315629767   -1.22561728357058
H          -1.67693200806521   -0.91314367759186   -0.52819975204775
N           1.51643001746417   -1.60028819765675    0.53582873309207
H           0.76259780073309   -1.48796977798838    1.26626903248999
H           1.68939582492510   -0.65083376682706    0.14939483142817
H           2.36676682383801   -2.00216325392093    0.91561318991506
