    26
        -50.45129678  Gyration_radius:  2.51542913865 Dipole_moment: 2.401
 S          -0.85887409866290   -0.81618307281291    0.73611524434483
O           0.30703798918608   -1.20118802768267   -0.03214170040397
O          -0.67807934614369   -0.82166384732076    2.14757409985410
O          -1.31315106885747    0.57202034480240    0.23634710507809
O          -2.04300754711557   -1.70484187100779    0.35412153778606
H          -2.19555510726926   -1.58961279956353   -0.64200740303967
H          -0.53610303333707    1.28058761263077    0.40232677985858
O          -0.67365639101449    1.75554776215377   -2.24254032089725
H          -1.30186232888531    2.12750702071292   -2.86384627074618
H          -1.18961201108402    1.36489822911308   -1.52134551786900
O           0.16190832662914   -0.85053303707401   -2.68072808066868
H           0.43134041782447   -1.06700783082572   -1.76793533665552
H           0.14274585398517    0.11909087351933   -2.72277749571482
O          -2.31279314937450   -1.43113639920894   -2.16662338430633
H          -2.55012148031392   -2.27900831078585   -2.54773633620730
H          -1.37858885467477   -1.23314914131394   -2.47743301297275
O           0.57175074711126    2.17612664858070    0.39360118755289
H           0.63221005292452    2.44349585103322   -0.53108329849016
H           1.36643326627539    1.56855835600408    0.56767320385082
O           2.36634419826647    0.39051232218826    0.77970074404838
H           1.82550699527125   -0.33621392246213    0.43010656986680
H           2.36998983976662    0.25025540284774    1.75895071531052
N           1.86246828139175   -0.10728797631255    3.37629609518074
H           1.76496263807826    0.66859846431479    4.01911742897244
H           2.30399141679838   -0.86842946980249    3.87667456832183
H           0.92471440320422   -0.41094319171301    3.11759288793801
