    26
        -50.47166722  Gyration_radius:  2.38850951405 Dipole_moment: 3.168
 S           1.36441408639862   -0.28330163030460    0.27308731807564
O           0.38020781278202   -0.59254014440203    1.30494525281261
O           1.60084519708382   -1.42329934207017   -0.59908022598467
O           0.96091188379649    0.88962660420826   -0.50749153129749
O           2.70016124347250    0.06027681929300    0.98384666034838
H           2.50880196562473    0.93347214788849    1.40941671003160
H           0.37570171846865    0.40690841546697   -2.43274849866323
O          -0.79333221995736    1.39091712991773    2.53456396648836
H          -0.39848305750274    0.58920513399782    2.11815914260239
H          -1.04826431085935    1.13386692520962    3.42180461230777
O          -1.68357870962122    1.23442249779138   -0.22310961947301
H          -0.71531676681323    1.18885016733413   -0.33731355513365
H          -1.81065175939805    1.39534246234360    0.71886418429364
O           1.64733402813223    2.34851267209529    1.67308874401897
H           1.38181228757088    2.32566011334458    0.74318115613654
H           0.81990574841950    2.21102298229816    2.16951537129743
O          -0.93848295428319   -2.60924905287884    0.18494562895700
H          -0.19495841018429   -3.09259703424068   -0.18300109886477
H          -0.52733000755245   -1.90751921056747    0.72799872177995
O          -2.11501850261085   -1.01518289285966   -1.59017755350687
H          -2.19130396305360   -0.17854090309012   -1.07676429339338
H          -1.86752591368706   -1.70260663015125   -0.92770797149043
N           0.19163723245573   -0.58365327289932   -2.61041579291976
H          -0.85212998556491   -0.79682587389718   -2.28383462172420
H           0.82933770738392   -1.07930036013679   -1.91811460093892
H           0.37530563953797   -0.84346772364746   -3.57365810576082
