    26
        -50.44628442  Gyration_radius:  2.48985535058 Dipole_moment: 6.612
 S          -1.05419209310707    1.36650791117946   -1.04360083026593
O          -1.19439216937039    1.07452645914210    0.36412511759564
O          -1.93315774831093    2.33307247827540   -1.58435062974572
O           0.44232673713348    1.70846432480115   -1.32059246969918
O          -1.17303224025009    0.03958908253902   -1.83029173569304
H          -0.31885985010393   -0.45644970083102   -1.63843228898518
H           0.76363506835569    2.44032785247343   -0.69836922278664
O           1.12198424998915   -1.01805836346977   -1.33350431447173
H           1.62446628535401   -0.25968786766503   -1.64412913891269
H           1.26976313259673   -1.06035721314228   -0.35744935880866
O           0.79092446453576    1.53971199729731    2.16278753442741
H          -0.09566446585193    1.44393575495501    1.77689413872682
H           1.22129628422375    0.68890033190685    1.98258398987327
O          -1.13629179803188   -1.41999081867610    1.44894519380687
H          -1.34847687032219   -2.00261307862610    0.68364863011404
H          -1.37741077223171   -0.52156144310214    1.16699257817731
O           1.36789972629692    3.35723185056261    0.38039027513939
H           1.20475987696295    2.77917735228935    1.17603783002012
H           2.31659738765179    3.48709457958440    0.31939152213881
O           1.40761411851768   -1.05984337403062    1.31837896384408
H           1.87234640657316   -1.76521502928167    1.77042634210617
H           0.42213697223591   -1.23491276539241    1.46325429182429
N          -1.53156746896209   -2.79355757397473   -0.87808955022357
H          -2.04292284990388   -3.66189310457849   -0.97269876080698
H          -0.61355015923152   -2.92042556808516   -1.28755492588506
H          -2.00623222411113   -2.08397408463100   -1.42479320106007
