    26
        -50.45116998  Gyration_radius:  2.71762051604 Dipole_moment: 3.203
 S           0.84160820543479   -0.32056521308309   -1.71372635257846
O           1.31656727727134   -1.29723461884352   -0.76012073390052
O          -0.56151638495698   -0.37324732349848   -1.98534515812685
O           1.24345314248783    1.08408541140711   -1.21843597520326
O           1.63606901337675   -0.44105974017230   -3.01820483409331
H           2.60866785826963   -0.47813686682451   -2.69967900340630
H           0.85520537720063    1.26831959621947   -0.27285629546087
O          -2.53748318839904   -0.22753445439139    2.88591691368129
H          -1.66005677631641   -0.61238974327021    2.75343892686355
H          -3.13922177935982   -0.79259397121990    2.39252024702847
O          -2.55144854730007   -0.62058030461243   -0.18040432227870
H          -2.00762938419753   -0.62352378223248   -0.98659222156503
H          -2.69964597586186    0.31300513440077    0.02035947928900
O           0.24929074318829    1.36682446110155    1.07183924176228
H           0.10490927437273    0.42078333770068    1.32106548582703
H          -0.65086818547316    1.74397052098551    1.01704932656316
O          -2.41703418353239    1.87944689361323    1.23343192116870
H          -2.81622673942687    2.68166167285004    1.57131348903180
H          -2.50253946282507    1.19777997428990    1.94247039839356
O          -0.40271265703957   -1.19388099758522    1.32216724812753
H           0.28259815870478   -1.47291429018671    0.69227429452373
H          -1.22574447017472   -1.13914792009867    0.78250833794271
N           3.86140710127920   -0.56604609747968   -1.75258243789361
H           4.67844504894060   -1.11651909670690   -1.98112019216808
H           3.33792992094352   -1.02481769364034   -1.01209846817290
H           4.15597662338847    0.34431509126800   -1.42518931536103
