    26
        -50.44580985  Gyration_radius:  2.52405654056 Dipole_moment: 6.230
 S          -0.36610455256602    1.36081369757383   -1.96950116647971
O          -1.01143674754753    1.53913649070097   -0.68995335812652
O          -0.47646034009953    2.42355219452843   -2.89680151071135
O           1.12716785567685    1.00136759356217   -1.68132147239037
O          -0.87518542834310    0.05678509986467   -2.62266930114985
H          -0.78533681807489   -0.69524867485921   -1.96963665908346
H           1.36631127431490    1.55705186583282   -0.86663023590745
O           1.18186247300762    0.34343318157918    2.27151151300499
H           0.18544082702316    0.37266652900088    2.16437340391145
H           1.35411676890076    0.53168911463237    3.19497809126657
O          -1.36328875708443    0.57937486239797    1.82658011968882
H          -1.82709713010066   -0.26815982912540    1.68301655656260
H          -1.35166653264194    1.00612387709608    0.95277888142616
O          -2.56391480986397   -1.65907169910768    0.85371505994172
H          -1.86479683461757   -1.83685160351938    0.20091858734902
H          -3.32256544331959   -1.34148808064483    0.36087768217884
O           1.37339572136195    2.32800895549037    0.46685485728999
H           0.44208930708754    2.57910083931645    0.42886099937996
H           1.43101348405285    1.63688630300915    1.16733091193861
O          -0.55638827147893   -1.94620263906466   -1.01025087455518
H           0.35553973154232   -1.76006637398331   -0.57343722944991
H          -0.44935030080546   -2.73307113176102   -1.54810702670072
N           1.76876674362449   -1.38425336366421   -0.01960460175837
H           1.64939610864681   -0.90885342110112    0.87223291064766
H           2.09245254951960   -0.69378143901001   -0.68859778870913
H           2.48603912178929   -2.08894233874282    0.09248167042873
