    26
        -50.45332695  Gyration_radius:  2.46099946418 Dipole_moment: 5.195
 S          -0.10155777528131    1.22825981922059   -1.40963187093389
O          -0.94756322746176    0.05608053411434   -1.34090379907289
O          -0.75266002576946    2.48007260676373   -1.22613306179369
O           1.00210271878432    1.09997002109725   -0.33594916037155
O           0.65412305630139    1.19090634235858   -2.74220190424784
H           0.91593279426600    0.18283881871021   -2.86372927085023
H           1.25754321829381    0.13895432426703   -0.16502980455040
O           0.70796557628217    0.74578448803160    2.83624468682281
H           0.12820702261511    1.31511506812288    2.28022331122339
H           0.60888912371472    1.07322902557038    3.73128434701663
O          -1.19921075353459    2.06350240844435    1.48386958813453
H          -1.80531745528588    1.31566399222852    1.36951674091969
H          -1.03041856274137    2.41124658285272    0.59669626655174
O          -2.43501397125590   -0.35116139521419    0.77165773183214
H          -3.32674504313023   -0.58714113372634    0.51244863794720
H          -1.92356805793514   -0.22674505904934   -0.06094276926286
O          -0.21363271394838   -1.58828467219769    1.89162058571140
H           0.12303069567640   -0.80888851094586    2.38533624051695
H          -1.07493115267449   -1.30548031592151    1.54484312716474
O           1.65051716325925   -1.34121071891210    0.13742147826522
H           0.88505152696298   -1.55261362259375    0.76633554057350
H           2.41938042241972   -1.26063672473538    0.70713639636588
N           1.12078149536930   -1.31353021957106   -2.76639931507876
H           1.68137685920725   -1.78739512327889   -3.46236771936518
H           0.17068830582811   -1.66109486220829   -2.80189280224509
H           1.48502875002800   -1.51744163341837   -1.83945318125134
