    26
        -50.44519977  Gyration_radius:  2.63583701241 Dipole_moment: 4.787
 S           0.92143347692111    1.89166894845232    1.38044047502688
O           0.80315185125721    1.12962700844191    0.14202097995167
O           1.04742316672570    3.28987208346042    1.20081202482106
O          -0.29565075484854    1.51754621859867    2.26627113867470
O           2.10280103301632    1.35515268941458    2.18990755435785
H           1.91640923737094    0.38928866865439    2.45409387188425
H          -1.05974919417623    1.29704628705734    1.65885812877457
O          -1.86835416234048   -0.68226073088591   -2.53976106708663
H          -0.95750934355225   -0.29981085923648   -2.65979303967879
H          -2.46115325740391    0.06767522261165   -2.45647126367503
O          -1.86856304822479    0.85876766685942    0.34775119908200
H          -1.99286078509750   -0.10856191651206    0.36243956218277
H          -1.05546625871245    1.00291064973142   -0.15922213936251
O          -1.78385198415966   -1.82551082084891   -0.17498444903187
H          -1.82141409425614   -1.51036173637356   -1.11745067610749
H          -2.34329570990858   -2.60063278477103   -0.11963633478852
O           1.67594028507005   -1.10306814926750    2.70664099140882
H           1.36920578102278   -1.41624126926157    1.80936042590818
H           2.51539930325856   -1.53613873091052    2.87565382755329
O           0.92477895653469   -1.55898035617317    0.25727399914403
H           0.95905037144113   -0.60198848516913    0.07511732930829
H          -0.01095614287608   -1.80416386463862    0.15078299739320
N           0.56379710384801    0.45508210525326   -2.68149336303654
H           1.27221302916296   -0.24735280411622   -2.85694412584903
H           0.74850947601119    0.84016624910358   -1.75795545289918
H           0.69871165398334    1.20026870043615   -3.35371258397917
