    26
        -50.44908119  Gyration_radius:  2.57535471823 Dipole_moment: 7.183
 S           0.32922032911759    1.33514497595272   -1.04622380285395
O           1.33517290421194    0.35118897809853   -0.74605763029640
O           0.56091890880124    2.66271091359848   -0.58604521321264
O           0.05374136865250    1.32517657500028   -2.55025225610815
O          -1.01826886191169    0.86679397597217   -0.40932456223691
H          -1.18477829248823   -0.10109185129119   -0.60588010389086
H           0.19889725676116    0.31840973033602   -2.84884908217799
O          -0.91669040255470    2.88626648232867    1.66219216809026
H          -0.34363846984613    2.99875541295491    0.88297461061301
H          -1.64321737408220    2.33674757662297    1.35906181686212
O           0.70996781975325    1.34932662824051    3.16633499562850
H           0.06345475142345    1.91834949054383    2.69519558382341
H           1.46908403592828    1.90658396751742    3.34424266526747
O          -1.53864264025704   -1.63329392266460   -0.87290709189815
H          -1.13397708644534   -2.04347128840792   -0.04657621076186
H          -2.48804741066185   -1.70547072656972   -0.75365456354087
O           1.34532344847836   -0.83547020408764    1.69464750181028
H           1.45986432432172   -0.41031555877077    0.82770735941227
H           1.10830158612363   -0.11434130207100    2.31293147757210
O          -0.52679762540863   -2.58147678762731    1.29917028196858
H          -0.06392450583057   -3.42050640428843    1.29957396809256
H           0.16586933379086   -1.89515936394864    1.53564881910376
N           0.45644012407950   -1.13662633779888   -2.94566805078469
H           0.63881698682999   -1.57162135641143   -3.83960927943845
H          -0.31177806564519   -1.60781661904688   -2.47821764445107
H           1.27468754668840   -1.19879295408475   -2.35041577676528
