    26
        -50.45204874  Gyration_radius:  2.47338955489 Dipole_moment: 4.830
 S           1.28842139197925   -0.84306782758910   -0.69504407102341
O           0.12867501198882   -1.26114081342727    0.05811003858152
O           1.19952005725128   -1.06982009360081   -2.09947017501916
O           1.52408660329002    0.67094451329874   -0.42273817393470
O           2.55207603683837   -1.47067567652665   -0.12874053662000
H           2.57152875880212   -1.14272262451130    0.83671932164460
H           0.68124802517299    1.16244594981234   -0.18579881048359
O           0.32285932653602    0.90855274824289    2.64786854191964
H           0.03096587186444    1.46087334236888    1.91249729494069
H          -0.36309096980954    0.21490335778568    2.73604259738671
O          -0.65044104278472    1.92458688028193    0.16240577250683
H          -1.33461893894450    1.24101016871136   -0.13318910571038
H          -0.78596881215264    2.70608352972786   -0.37592414166894
O          -2.11478517461880    0.00580641417561   -0.71252573751746
H          -1.44963798634874   -0.65046171024081   -0.43709728843389
H          -2.00406205199138    0.04929047146631   -1.69358244361463
O           2.51484210915980   -0.45943014350324    2.18640108693114
H           1.67073951295819    0.03781895728250    2.38272923265543
H           3.22291442945222    0.18381190836203    2.26086633369066
O          -1.49191406049662   -1.05237923166681    2.26068572135087
H          -2.27002354520389   -0.75346898179210    1.78282957770907
H          -0.87987601936372   -1.38459645233946    1.58639839988881
N          -1.24985851817537   -0.04746845795454   -3.26081463657002
H          -1.05581791299749    0.75212081020242   -3.85162974569520
H          -1.70656921339367   -0.74212795644208   -3.83978413578872
H          -0.35121289930610   -0.44088909209972   -2.97721492717055
