    26
        -50.45690879  Gyration_radius:  2.45630092438 Dipole_moment: 10.935
 S          -0.72898770953823    0.37155694029900   -0.46495958416568
O          -0.19461091801501   -0.83999519122765    0.17841428022380
O          -1.36239221922040    1.26694252044791    0.45232208686640
O           0.51723361757696    1.06637223546416   -1.12638168592238
O          -1.55714163901179    0.00533595533085   -1.61843721753780
H          -0.65360177674617   -0.37005063754156   -2.61499869384389
H           1.00934701586560    1.54771126623913   -0.39016990323187
O           1.13434969245505    0.09656973672333    2.34152993830232
H           0.37377664396062    0.39751162847347    2.89008128002778
H           0.71300753025050   -0.41134883411944    1.62697387368581
O           1.50228552085562   -1.96384892721610   -1.42820277656789
H           2.36227464397032   -1.74563449374155   -1.06409957115092
H           0.84002690523367   -1.65820027797398   -0.75562486438584
O          -2.53160197484741   -1.11250962536712    1.61199585238102
H          -2.98863494889906   -0.40414277844796    1.15225798139984
H          -1.69230702087405   -1.22014135250447    1.14297905321315
O           1.80527970557350    2.08802196675881    0.83254751687291
H           2.76256849057148    2.10552616461022    0.77598759849446
H           1.57642227897900    1.39545270534600    1.52385480288627
O          -1.28180931038289    0.85352515900198    3.18520069071141
H          -1.79708720704702    0.04162185843575    3.05960935301693
H          -1.36930316241707    1.31717158919146    2.33785185240156
N           0.19575511850948   -0.64696336875813   -3.29721987982161
H           0.83461627005045   -1.22314293190181   -2.67736699351967
H           0.65715289959160    0.21559658231532   -3.57094705198490
H          -0.12661842616730   -1.17293791005699   -4.10319795873425
