    26
        -50.46815424  Gyration_radius:  2.47601987909 Dipole_moment: 5.894
 S           0.03071522625159    1.08339117596574   -0.33596905629745
O          -0.28342794959251    1.29932574611494    1.08287510375525
O           1.33582433261636    0.45048495424940   -0.47435381148392
O          -1.02217576119235    0.30897452044673   -0.97960387750476
O           0.08724262910800    2.48220812499581   -0.98547575387246
O           1.93464778015977    0.24651385202050   -3.04514178884089
H           1.77487087248425    0.23407701216480   -2.07687507429376
H           2.80325472337611    0.63285342533535   -3.16776002241710
O          -1.45038770281749   -2.04921476805227    0.11431059873664
H          -1.78194196792505   -1.28767289073428    1.30619843214331
H          -1.39895282680592   -1.28289787693001   -0.49938036578920
O           0.87208922248518   -0.20788727851255    2.96178769852825
H           1.71195151067765    0.09686960927875    3.30795603478150
H           0.60050490308408    0.44959610988051    2.28660137472416
O          -0.40329548539458    1.52399519555956   -3.30189645296942
H          -0.94191535020316    0.88219668629966   -2.81531859691288
H          -0.09086024329677    2.28626569116713   -1.95414642285157
H           0.44596006806606    1.06466104897582   -3.47398760999303
O           1.09286995676146   -1.91545953103020    0.76570183790397
H           1.12113433104404   -1.57525193384617    1.67317424976919
H          -0.49965612724281   -2.26440530200826    0.29058697392107
H           1.30660122761709   -1.14183307110386    0.20956464417773
N          -1.83756596690808   -0.52207335102692    2.11608245749243
H          -1.36466036515905    0.32717379261727    1.68388628086178
H          -1.25546830091481   -0.80367847634118    2.90501924684188
H          -2.78735870627828   -0.31821245548040    2.40616389958964
