    26
        -50.45162560  Gyration_radius:  2.44063631643 Dipole_moment: 9.812
 S           0.38847725852864   -2.22748437790660    0.40646335515044
O           0.85397645544913   -1.72885910805712   -0.90894596223149
O           0.82389793411439   -3.54138482999550    0.72252709515801
O           0.77859604947330   -1.22339282119850    1.43947233913727
O          -1.16799813704467   -2.20187226413460    0.37875244407179
H          -1.52155937787673   -1.44793025668835   -0.18354787135884
H           1.85101970510997   -0.31218386392704    0.86762094705973
O          -2.11659602508564   -0.20144599496290   -0.95936151240319
H          -1.99353713343573    0.59612859609825   -0.42144783564827
H          -1.52520666021350   -0.08926408052957   -1.73597508070109
O          -1.35456615380172    1.87171988199548    0.75120314213707
H          -1.88715823643780    2.57384606100448    1.12685118898668
H          -1.32693691273282    1.14582023373431    1.44235083047783
O          -0.04326056047572    0.17085291472017   -2.59893644003662
H           0.35759221687749    0.91424563925307   -2.12879742979932
H           0.31128880181645   -0.63661206884302   -2.18361553921741
O           0.85090470906572    2.20263767059411   -0.74539559141984
H           0.05834514134306    2.08706705605373   -0.17498596052716
H           0.85513545484718    3.11843165953264   -1.02682765733856
O          -1.36660837556964   -0.12147461535551    2.41525184612996
H          -2.04605521677609   -0.75918462351481    2.17841676038039
H          -0.51749537978440   -0.56511992911255    2.17592720422908
N           2.37515081633298    0.05527328288948    0.00037414165420
H           3.38425993199027    0.01281561226025    0.07560928138645
H           2.02855211362967    0.99116392197226   -0.25873665458617
H           1.94978157064935   -0.68379369587912   -0.65424706069292
