    26
        -50.44537470  Gyration_radius:  2.45170234556 Dipole_moment: 4.571
 S          -1.43466042906757    0.99139996575393   -1.40998661682666
O          -1.53057544314145    1.67226167128445   -0.14254577889690
O          -1.46011921772109    1.81724076454354   -2.56417762680892
O          -0.07270306923249    0.17732731692520   -1.39557238519858
O          -2.43160381874266   -0.14180387364157   -1.49735351696973
H          -2.28398602178053   -0.72312805680169   -0.62149057819276
H           0.66392242034332    0.75944184795554   -1.05802199650011
O          -1.90397435168030   -1.56443468156792    0.46513372213406
H          -1.35769634389910   -1.09712521364633    1.15767483112539
H          -1.28723803949952   -2.18848505693527    0.04246052441878
O           0.20918714438576    2.29003229162765    1.66848982279539
H          -0.05859926336400    3.05169959041709    2.18473162831255
H          -0.52952149836243    2.10350541585198    1.03925175601440
O          -0.04747054649127   -2.57726065749751   -1.31234044760515
H           0.00688967261870   -1.62121447638371   -1.47585777786777
H          -0.49811544750497   -2.95951288082953   -2.06748902674276
O           1.75325014377514    1.76349542988497   -0.45597987312451
H           1.72585836892367    2.57064371763119   -0.97476494589413
H           1.36462525574105    1.97700924186657    0.42009493718262
O          -0.17435285305254   -0.49587570099732    2.11524376828033
H          -0.08517012031939    0.46456180425882    2.14779126313805
H           0.65009755571568   -0.82295930334562    1.68461003040925
N           2.00820683668119   -1.28657907893953    0.69117220430855
H           2.33513304253632   -0.48957988329965    0.15855103415101
H           1.63526759142473   -1.96885386514280    0.04142587440387
H           2.80334842171274   -1.70180630896371    1.15894915399802
