    26
        -50.44480825  Gyration_radius:  2.57871635644 Dipole_moment: 5.126
 S          -1.45355533032668    0.10314921836184   -2.18463235827902
O          -1.65591716515506   -0.98230543822069   -1.25914919826737
O          -2.56586755826776    0.52785320012187   -2.94913170545319
O          -0.86508741382540    1.30856704673193   -1.36438957656736
O          -0.26659472954678   -0.21613039312393   -3.10742188149883
H           0.50123095049423   -0.58570115120292   -2.54999273418454
H          -1.36611908068274    1.38040707866730   -0.46532440217787
O           0.45582606142443    1.50201218420341    2.03404073539162
H           0.52834020845429    0.57220928136791    2.37139188370040
H           1.05179800848764    1.54401781766370    1.27258068247138
O           1.61016331753596   -1.03014059836180   -1.57894604204018
H           1.86094113130680   -0.21808690245145   -1.10562031553205
H           1.17735593209379   -1.60936098869782   -0.91781484210711
O           0.02897031302638   -2.41025303634175    0.11669221395353
H          -0.68576559372703   -1.87146052380378   -0.30057403166736
H          -0.17518550066440   -3.32136298370466   -0.10146798893042
O           1.69200410319656    1.50579757136786   -0.51577235910933
H           2.19436693679210    2.19826255719941   -0.94818647492576
H           0.78747374966464    1.53678762376033   -0.88647141619070
O          -1.87614527831328    1.56271754562902    0.91792943103604
H          -2.25054224641529    2.43722829321447    1.04127535805473
H          -1.01208560701368    1.54161972537299    1.43984271108519
N           0.58443628829801   -1.09727111360375    2.72391010042792
H           0.39670448704071   -1.58224334284226    1.84928795666386
H          -0.15278267727116   -1.34283802993293    3.37254801605993
H           1.45603670338001   -1.45347463134625    3.09539624805186
