    26
        -50.45154616  Gyration_radius:  2.55904790184 Dipole_moment: 8.108
 S          -0.33932136450109    0.17688737059474   -2.22107272015663
O          -0.93188375560631    0.23847875140384   -0.86831268717947
O          -0.66805140966922    1.30270832721570   -3.02343966806608
O           1.23399522983208    0.13964355115889   -1.95040199404771
O          -0.58471275759275   -1.13629007496993   -2.82398242432667
H           0.29304399444511   -2.00911419534422   -2.13841792680330
H           1.38328787569713    0.93282529303715   -1.38569325756892
O           1.29666714603087    0.35164450229005    2.18345286019645
H           0.46834615772150    0.82765834409200    2.45815233026613
H           1.85773780946625    0.32062441052784    2.95899479946116
O          -2.71873688897016    0.98686347870274    0.95321974803440
H          -2.15732653442998    0.78176903063178    0.18020426659054
H          -3.25957760252002    0.20942938256837    1.10079870481223
O          -0.86538118279341    1.75509631950553    2.72082860876589
H          -1.60342940290405    1.44503485421247    2.14713917826473
H          -0.71680696258945    2.66935732570303    2.47002129085288
O           1.02030898417358    1.95184305004724   -0.08965610196355
H           0.10266578725284    1.67927157480710   -0.24361852208271
H           1.30930692186258    1.45898251200026    0.69639783824640
O           0.04561448364554   -1.59058467459340    0.71772721765880
H          -0.44725514272121   -0.93161455968710    0.16983690085281
H           0.59556036398598   -1.04267776157439    1.30649137381324
N           1.02407004099631   -2.54621258915302   -1.48895928813526
H           0.71996147016241   -2.27454720370277   -0.49302425141532
H           1.93631059734040   -2.14831921578712   -1.69468380073819
H           1.00560614222526   -3.54875781515837   -1.64200245390780
