    26
        -50.44974716  Gyration_radius:  2.55059358927 Dipole_moment: 4.122
 S          -1.15182946717368    1.58322414448549   -1.31066472751946
O          -0.64981409314330    0.22176711173359   -1.23066256451631
O          -2.46195005390350    1.71367327363195   -1.82917099031664
O          -1.01368466258728    2.20341732157391    0.10601577676799
O          -0.16033180467192    2.43626910985718   -2.10830886348524
H           0.69255020197752    2.49165745138736   -1.56594678136046
H          -1.55171950160626    1.63320664181943    0.75585445512166
O          -0.41216696335014   -1.14063227261905    2.00053342480489
H          -0.65325285217261   -1.75788406601370    1.28606588532745
H           0.37257505030205   -0.67034834521697    1.65908660554699
O          -2.23462265294193    0.68786351482283    1.72404125065991
H          -1.57072138328080   -0.04944266314500    1.88661507405227
H          -2.39573426280308    1.10019212763376    2.57516642419866
O          -1.06024313951799   -2.31399394040364   -0.40645170359953
H          -1.97602966504592   -2.55427497966353   -0.55685877046364
H          -0.94846148974691   -1.43095652540798   -0.80751905564972
O           1.84313705752518    2.52677728051254   -0.51096455052668
H           1.88004964536075    1.61340244326523   -0.13692419459923
H           1.48581746819643    3.08218756763837    0.18651048312157
O           1.43021654641345    0.06970513110751    0.38594953582062
H           1.87793260042228   -0.77072483404687    0.12709843534050
H           0.65823501334088    0.11301819517283   -0.21807951831487
N           2.03060654147595   -2.44092688025825   -0.41143574005468
H           1.04949969684875   -2.68956667598654   -0.49872170552345
H           2.46198899722346   -3.10344259613160    0.22073889718279
H           2.45795316284909   -2.55416750575582   -1.32196707203512
