    26
        -50.45645595  Gyration_radius:  2.46884016117 Dipole_moment: 1.952
 S          -0.77349892027746   -0.67510159256637    0.87487644870982
O           0.24688433579879   -0.70115716049353   -0.16381391780732
O          -0.36470383936032   -1.31407975257949    2.08873431492727
O          -1.14210815198364    0.79846598341162    1.15222545502893
O          -2.05366932025267   -1.26884634769586    0.36514207161289
H          -2.30651147222585   -0.77962946006702   -0.57995686025116
H          -0.36301912636249    1.43870764400500    1.05675445644812
O          -0.36690005568196    1.48737400233368   -1.63304311291166
H          -0.11664226948953    2.24337865948615   -1.09479008910751
H           0.04270392278178    0.71345270293866   -1.21094969789045
O           1.65298937696473   -0.04209804990658    3.25693924096279
H           0.86945353516761   -0.52426305726150    2.92040302796369
H           2.00839577379940   -0.57858601390403    3.96748567768087
O          -2.44779604138326   -0.18986185138725   -1.81330528447640
H          -1.91127192751892   -0.83263860042291   -2.35767846584452
H          -1.89610611814841    0.62145992224969   -1.79402618032884
O           0.84634866790475    2.38615234603313    0.88858708649736
H           1.60697022298031    1.74144504922679    0.76544261220769
H           0.99885169636401    2.81437189251106    1.73374783461814
O           2.54267029497677    0.43259023472206    0.75308780265766
H           2.47552144265704    0.22051506825369    1.70405206984661
H           1.90902151124903   -0.15771986771776    0.31347932684222
N          -0.60048190402864   -1.82693307660393   -2.79071893704100
H          -0.06341142338740   -1.66817595308871   -1.94192228139164
H          -0.04161032618827   -1.51623261435748   -3.57522184719646
H          -0.75207988438055   -2.82259010710028   -2.88553077175750
