    26
        -50.46161917  Gyration_radius:  2.45463803702 Dipole_moment: 8.344
 S          -0.59571394883620    0.22055671562817    0.44573487983716
O           0.42075899195735    0.02685046465627   -0.71766489450678
O          -1.02037847612409   -1.06948009131614    0.93906502297722
O           0.08658011023766    1.01286436596980    1.46571452698964
O          -1.68236305519628    0.98651857587614   -0.17768781043964
O           1.42849248836562   -1.09222627638673    2.45852150200503
H           1.01617290534399   -0.23916038717341    2.22915937072840
H           0.69476138550579   -1.67174667890932    2.68012069659380
O          -0.13305742147959   -3.41831488911446   -0.14449549794912
H          -0.61777869777346   -3.36381318028139   -0.97388423560936
H          -0.54599685479293   -2.74334271656023    0.41939070530649
O          -2.09919895172992   -1.60052005828114   -1.51571816534747
H          -1.81215737210155   -1.37723732784607   -0.61840210097837
H          -2.74139516773542   -0.92802743978775   -1.74656084733305
O           0.94219222185875    3.30781479088778    0.60171783809848
H           0.60839727434625    3.96331899794004    1.21710420833930
H           0.71676755301452    2.42706883135598    1.00266815654832
O           1.99112091986141   -1.80358210235509   -0.06009015203810
H           2.02475953194588   -1.62562629804080    0.90674615223230
H           1.38300857100493   -2.57188067212789   -0.16294528190348
H           1.11885472759892   -0.72227131675294   -0.48961311829012
N          -0.23576081916484    2.48985555705047   -1.59444645127137
H          -0.63244749890141    3.10399881072189   -2.29803633310989
H          -0.98921879423410    1.89052906910854   -1.04281351105718
H           0.39007081540340    1.79169678039688   -1.99751519875397
H           0.28352957163679    3.00615650543504   -0.82606945110306
