    26
        -50.45162564  Gyration_radius:  2.44062399198 Dipole_moment: 9.812
 S          -0.44085609601375   -0.52853276637634   -2.19176358296781
O           0.77628075149791    0.28540626777177   -1.96450854253549
O          -0.57822952911060   -1.01991112209550   -3.51671877075073
O          -0.46314250488086   -1.61275960035638   -1.16632869013229
O          -1.66309011017430    0.37592615583462   -1.85690338972052
H          -1.45624604841242    1.03085347810168   -1.12348409652006
H           0.92520386916730   -1.76021320898540   -0.56810056932000
O          -2.45603832668433   -1.21393432350734    0.45760498598137
H          -3.01875119432227   -0.62648748775152   -0.05486109556589
H          -1.75008770241175   -1.49272601350758   -0.17406385709327
O          -1.20781947244978    1.99273578767625    0.11049266871240
H          -0.27925625296769    2.29582680446195    0.00394942019723
H          -1.21873920267876    1.47048325410228    0.92765476396728
O           1.61230898730464    0.10529142346235    1.87616420692267
H           0.63629146105860    0.08638803565296    1.99419247903071
H           1.98774857596018    0.32293098408989    2.73031055924231
O          -1.05558064900663    0.12722803300047    2.18441842455266
H          -1.52298446727559    0.11142544829176    3.02049650517304
H          -1.58715471630198   -0.44941124106858    1.55967570278126
O           1.44349254509739    2.16351403280695   -0.14852619210465
H           1.67924770469061    1.54017829499543    0.55161323047584
H           1.30607286352559    1.63002177663993   -0.95268641400927
N           1.91041599023711   -1.34720882695642   -0.42421354025193
H           1.99771160945796   -0.94849818237015    0.52267374231158
H           1.75814581518949   -0.55798471426491   -1.13804039657316
H           2.66505609950973   -1.98054228964563   -0.65904754180281
