    26
        -50.46161901  Gyration_radius:  2.45376414989 Dipole_moment: 8.352
 S           0.49335141874364   -0.24618860151585    0.54995309253884
O           1.68953356759451    0.53058821189914    0.23484897587751
O           0.61559346943935   -1.63294901789315    0.16250161590346
O           0.10559383238699   -0.07148603830144    1.95541296582074
O          -0.68110088802268    0.41320701641579   -0.23119846971547
O          -1.07322103333503   -2.80255313275237   -1.64311326433217
H          -1.85510024163930   -2.82970462758569   -1.08300409785840
H          -0.34503522939483   -2.60986104180653   -1.02942306627517
O           1.47051576862120    3.04975872343387    0.82730625409471
H           1.61963068926742    2.12245710449336    0.50288363347304
H           2.24464315975234    3.26638435874183    1.35035856055752
O          -1.88896552643391   -2.08205709668664    1.16165853888751
H          -0.96547718843590   -1.95221929693019    0.90140013085410
H          -1.92420710260037   -1.83495479093180    2.08666808996614
O           2.06723601892684   -0.67640021354370   -2.13540417393347
H           2.12124998434086   -1.59288784204776   -1.85172966544580
H           2.08080111210978   -0.15582846266804   -1.31126372130163
O          -0.55047888615744   -0.36674404139392   -2.60281680739102
H          -0.85966684278485   -1.29353771629428   -2.47612594418879
H          -0.66712869658672    0.13377316698741   -1.24207537275368
H           0.42808928608283   -0.42720326780463   -2.68252381282204
N          -0.85709703127942    2.24892773200703    1.73413462861736
H           0.01921750608158    2.77348027587193    1.44586135623251
H          -1.44112218672079    2.11322664672201    0.90831382165454
H          -0.48504002530037    1.23105601159196    1.97246521895663
H          -1.36181492463545    2.69171592999568    2.49491152263574
