    26
        -50.45176467  Gyration_radius:  2.46372667284 Dipole_moment: 4.947
 S          -0.91014575800071    0.89987718420421   -1.84950273854691
O          -1.40312158708002    1.65722178654250   -0.71452519189943
O          -1.19171874233437    1.42326470279316   -3.13355316989114
O           0.62194179990874    0.72147143197693   -1.64658687225609
O          -1.41664376733554   -0.54820674343231   -1.76696193301244
H          -1.44247881663677   -0.90931904846043   -0.80916208307647
H           0.92902018371919    1.45856546707153   -0.99522389334444
O           0.88213244395293    0.91002607355842    2.12793714274370
H          -0.08092964429586    0.93550447433641    2.23410084038767
H           1.09877281670379    0.00623637345665    1.84751372363001
O          -1.88262968199634    0.98784263263708    1.75960865199614
H          -2.67409842256767    1.41949312958017    2.08364537127641
H          -1.74676593135382    1.30733357298927    0.83483745971350
O          -1.45131729822533   -1.42729797026924    0.61748899926688
H          -1.74083709857086   -0.67429208938756    1.16475837893707
H          -0.52461279710260   -1.60487386217988    0.87901324003397
O           1.11501338576309    2.50261313838498    0.04639658313973
H           1.15989017605582    1.97280236376432    0.88822633681322
H           0.22656781202449    2.87550468813087    0.01690985494125
O           1.17422921991821   -1.70094954892133    1.19658480324399
H           1.56884699695280   -2.42447324795212    1.68504014453537
H           1.42468942597160   -1.82396870873961    0.23369310928465
N           1.57942932419196   -2.01640276129976   -1.40027835930863
H           2.45705421958758   -2.29018791189450   -1.82398814057682
H           1.38043506775601   -1.06017422310915   -1.68516444599047
H           0.84727666299901   -2.59761092379816   -1.79080782204124
