    26
        -50.44562938  Gyration_radius:  2.48260514072 Dipole_moment: 4.742
 S          -1.65393342369287   -0.02725267061565   -1.81238911124775
O          -2.28855732454385   -0.13784999609735   -0.51122131362449
O          -2.44750482770697    0.51529158634839   -2.84995050364049
O          -0.36340627247297    0.82233458215157   -1.58621759222923
O          -1.08453103404951   -1.38372364041004   -2.23430891267054
H          -0.45246393946922   -1.72400878261252   -1.51119536968207
H          -0.54001571730670    1.36086176916665   -0.74417434854634
O          -1.55512472218714   -1.64873796913202    1.47353423930827
H          -2.28788301254386   -2.16720284787826    1.80818242392274
H          -1.91792017053712   -1.08611347602786    0.74404017593312
O           0.26947390229502    0.27474228103126    2.13422120808345
H          -0.37673192424924   -0.45072271373632    2.11878350158436
H           1.03151255854052   -0.02276172256954    1.61974301754465
O          -0.87955760820968    2.05143864948618    0.58210179875102
H          -0.43431015936961    1.47246183767325    1.26090654457491
H          -1.81557566522076    1.83425804757735    0.62952238772553
O           1.86746631925220    2.30140338353863   -0.59612401182943
H           1.40047513321490    2.03964968325909   -1.39593433427867
H           1.21398953321567    2.73356633729492   -0.03825574233124
O           0.42032885165020   -2.13233562930901   -0.32623737781890
H           1.12763092004658   -1.48467762648046   -0.11311830247425
H          -0.19488841075996   -2.14650459788040    0.42785192066203
N           2.48838783592490   -0.38680146990556    0.28471851930927
H           3.02037139263607   -0.81413555156571   -0.46659185643047
H           3.10150874059374   -0.38347197335423    1.09349856961376
H           2.35125902493369    0.59029250005898    0.00861448978992
