    26
        -50.46161915  Gyration_radius:  2.45402394431 Dipole_moment: 8.349
 S          -0.33695923671634   -0.60061556984836    0.36218543054739
O          -1.40400779224342   -0.87854997705913   -0.57176105361264
O           0.67604031391266    0.39118075556331   -0.28157185753571
O          -0.81663679053515    0.03280952507615    1.58788085197650
O           0.48695151898507   -1.77793986349940    0.66422375207201
O          -2.57119499789701    1.60783109105601    0.29999647768715
H          -3.09066256540503    0.94269438113016   -0.15939526080760
H          -2.00307792437523    1.10574545465461    0.91278873696481
O           1.08303222056803    0.63518994725847    3.25310782855011
H           0.82092530393318    0.26549899013708    4.09837230174032
H           0.30115885969653    0.50846724441982    2.65312913106554
O           0.43356790691159   -1.97786114008957   -2.27084365431853
H           0.89942369935606   -2.69312001717740   -1.83571470267630
H          -0.23237141170914   -1.68535057813704   -1.63175459155971
O          -1.47186085656611    0.20332264255447   -3.08285005095219
H          -1.68717692327437   -0.25640198120300   -2.25443143774921
H          -0.75114929810814   -0.31098777850422   -3.45954965509325
O          -0.63696034151791    2.15748939018376   -1.46715591719892
H          -0.94882056948761    1.62611120004677   -2.23598248177724
H          -1.40477593053909    2.20411739664169   -0.85407656450819
H           0.17919534247126    1.16785947027836   -0.78180529039371
N           2.54828226924429   -0.53735511666291    1.42041282586114
H           1.72418513694782   -1.20779446721954    1.10003440793336
H           2.15108297169134   -0.04302635200272    2.27143857227523
H           3.42303985890343   -1.01795603643712    1.60321043170836
H           2.62876923574088    0.13864137884012    0.66011177979537
