    26
        -50.46072736  Gyration_radius:  2.44908060757 Dipole_moment: 6.383
 S           0.82231148173371    1.22127875942141   -1.16167509916331
O          -0.25314837390948    1.28664450151682   -0.14015500110013
O           1.96670214204566    1.97563067332096   -0.74089688835755
O           1.12847606994585   -0.19632366237128   -1.41793947136928
O           0.25978593872818    1.81452417082050   -2.47260672328133
H          -0.29874256622458    1.10747549524059   -2.90293636150715
H           1.46209288765551   -0.84052898442055   -0.17457871921490
O          -0.84606699044754   -2.06894376858138    1.51320610142180
H          -1.13012390919809   -1.16717359216269    1.81302339957102
H          -1.35412643064825   -2.69855951434555    2.02554752671916
O          -1.34181200616854    0.42920115611187    2.23640344965118
H          -1.22924064318817    0.85145399266659    1.36866201118444
H          -0.63697452893533    0.79035608823358    2.78184418851121
O           1.48206938792421    1.29104108644865    1.85427453868077
H           2.22159621375422    1.81826796061829    1.53472848626306
H           0.80397078815870    1.43564688740029    1.15502534321004
O          -1.35324677141452    0.00787308441842   -3.42801572003681
H          -1.53625459951032   -0.44512058462760   -2.57266133405598
H          -2.16766457515638    0.45315881908948   -3.67288814650301
O          -1.81783234464562   -0.71462067390016   -0.91932949462095
H          -1.28687743704538    0.05672440073894   -0.63334052791963
H          -1.49128054612805   -1.45713836953974   -0.40039321521687
N           1.63244644922430   -1.18672491177327    0.85934226567517
H           2.46999407120321   -1.75380403432102    0.92304988921628
H           0.78741407104002   -1.71105552530421    1.15369351341198
H           1.70653220121872   -0.29928345470428    1.41861602890084
