    26
        -50.44924623  Gyration_radius:  2.52530780378 Dipole_moment: 6.228
 S          -0.96460275335373    2.02675471070943   -1.30482784026334
O          -0.20573081687556    2.47833083481712   -0.16031246283137
O          -1.05051901332428    2.90964010130449   -2.40505843898460
O          -0.36126980237213    0.64478457287485   -1.72823440318657
O          -2.38116074863793    1.61833099117776   -0.85944099158863
H          -2.33086400179048    0.90392989707525   -0.15451133905406
H           0.62597158140452    0.69717258873620   -1.48720094130737
O          -0.16398421583810    0.99608052156552    2.07478135260034
H          -0.93744483485874    0.44343202403144    1.89528451625859
H          -0.17462468147277    1.67767720357162    1.37540944028703
O          -2.26186362990050   -0.32910166571532    0.83334749785264
H          -3.15329341884030   -0.62626889745526    1.02498505244005
H          -1.86011330296045   -1.01798323235929    0.20501710440034
O           2.06149451886923   -0.24392956560055    1.48506244762196
H           2.72992735798902    0.03357898139722    2.11320175779927
H           1.20918129954776    0.17636882944324    1.78682035118715
O           1.98169854449789    1.06189690852416   -0.86649266583467
H           1.64769470565911    1.90939498710926   -0.53981459862775
H           2.11087980852624    0.50559684112187   -0.06396287448078
O          -1.21694552793737   -1.89165562818055   -0.90570793760594
H          -0.33476656297481   -2.22986254903582   -0.59139587248598
H          -1.00625688331077   -1.20026279097512   -1.54576086843207
N           1.24870266075310   -2.59535885381739   -0.12211662782778
H           1.35005371426109   -3.48683354302786    0.34614787633824
H           1.56670492213449   -1.87014380648000    0.51545230118407
H           1.87113105080034   -2.59156946093554   -0.92067184554542
