    26
        -50.45216616  Gyration_radius:  2.59343590644 Dipole_moment: 0.928
 S           0.50137193317761   -1.02949765863323   -0.23190950020871
O          -0.92076359767218   -0.93402234572329   -0.45839491601187
O           1.30553564294390   -0.19493958592111   -1.07140723573224
O           0.77583146876929   -0.71822868322669    1.24666908297022
O           0.94222247502448   -2.48794266770828   -0.38961853881185
H           0.57319046124963   -2.98496408329075    0.42061726638615
H           1.43582923348742    0.10851850050628    1.27673488839985
O          -2.42000698012051   -2.38302104688050    1.19022391105711
H          -1.98025691057836   -1.74991151417492    0.58634237304837
H          -3.08934378723054   -2.83151394668437    0.67009092769227
O          -0.05783985004122   -3.42645297379157    1.74573417243076
H          -1.00815279503213   -3.17352512816030    1.64356937908759
H           0.30970723991463   -2.80524960871999    2.38143928676515
O           2.24363607109097    1.25982454358919    1.03332053281038
H           2.36600581759678    1.10499586072673    0.08692391411962
H           1.57817164993025    2.00326585126659    1.10192743204197
O          -1.36911998981561    1.78851460914495   -0.59375920158006
H          -1.34926091712247    0.82419262665806   -0.50911069863468
H          -0.96169445939548    1.96822907617516   -1.46940542048442
O           0.27686221978869    2.96565250715420    1.08486219571806
H          -0.19798884209078    3.06844712014597    1.91072837917923
H          -0.37234598421289    2.57472070502812    0.44077813227834
N           0.15127536022600    1.84871488234547   -2.86247694977503
H          -0.20614498209913    1.50469405003581   -3.74454752598940
H           0.67835303847466    1.09562727357398   -2.42678509453763
H           0.79492650373050    2.60387162656309   -3.06254678218604
