    26
        -50.45250625  Gyration_radius:  2.46498709508 Dipole_moment: 1.511
 S           0.57429583908993    0.22640206488905    1.85395204297813
O          -0.13615143027448   -0.70329735244562    1.00465840729635
O           1.82499048936856   -0.24154802055356    2.33833658296494
O           0.75262290922263    1.55758279412619    1.07443828014379
O          -0.32530431531958    0.65421541952150    3.01500392968291
H          -1.16350237707986    0.98981350721785    2.56235716697850
H           0.72012370206847    1.45182086338442    0.07406791330084
O           0.65880648259751    1.42042398263643   -1.48477469951682
H           0.76764429519384    0.47200417384243   -1.84173594082952
H           1.36157751084377    1.94084975248850   -1.87697869400680
O          -2.06408135725407    1.23232428719426   -0.90628033912611
H          -1.18508351333440    1.51303181573272   -1.19696217865690
H          -2.09450503051887    0.27902229175152   -1.09265513872170
O           0.90361750994043   -0.99374579089936   -2.29145421958609
H           0.01462981578098   -1.33233630249809   -2.10839555208495
H           1.48883381380745   -1.38841507828270   -1.59635476436524
O          -2.30282382078680    1.58142574996223    1.69651305117553
H          -2.31831844967179    2.53546861765765    1.79780859104050
H          -2.23890020717963    1.41251673354913    0.71724117898379
O          -1.57267292921385   -1.48644733127122   -1.07324187769140
H          -2.16375803834703   -2.19423481558825   -0.81306500756099
H          -1.05228812113571   -1.25494588168977   -0.27669224554596
N           2.30778933367941   -1.86807233121089   -0.16256483817650
H           2.49826077124328   -2.85211379012237   -0.01536711506659
H           1.59736011560899   -1.59024095189425    0.50895608385208
H           3.14683701168558   -1.36150440749248    0.09318937250789
