    26
        -50.44488096  Gyration_radius:  2.56195018164 Dipole_moment: 3.842
 S           0.34630089716288    0.96984346609869    2.04849315402541
O           0.39032680065258    0.94503883879404    0.59496642288246
O           0.18855096511699    2.25280594343783    2.62544815846593
O          -0.78557533664004   -0.01096143647965    2.47775389485409
O           1.58925503640478    0.26884015004432    2.58418250172573
H           1.54354710598276   -0.66763090677078    2.16289644517109
H          -1.66115982374673    0.25012578369309    2.05153374846095
O           1.17847150424462   -1.95181907833341    1.47982410180888
H           1.23264737018674   -1.88660278062486    0.47033710409884
H           0.24652924071638   -2.03808876448475    1.69680411567386
O          -2.95675283713016    0.43175668931385    1.17834524829391
H          -3.62290287845149   -0.22156194051006    1.40237265310728
H          -2.56076293288656    0.15131354306014    0.31281277844421
O          -0.69473589630120    1.17940858896546   -2.94552530978899
H          -0.97690367214695    2.09411851686730   -2.89583164091794
H           0.23271304806690    1.16110773173678   -2.64382197792338
O           1.75856784073912    1.18317774706458   -1.67447985792195
H           2.38248530306821    1.90842469365031   -1.61852287926189
H           1.31453076009567    1.13614488739301   -0.80407312748777
O          -1.45889748048000   -0.34813061160963   -0.83116594704586
H          -1.41796730853922    0.12009200453589   -1.68761175541990
H          -0.73677965469923    0.05905425169124   -0.31160082967480
N           1.15537078532514   -1.78924662612879   -1.15206987645813
H           1.51336048142025   -2.57160110480510   -1.68417577318993
H           1.62962393802458   -0.94929837626446   -1.46574757556206
H           0.17015675377697   -1.67631122034045   -1.37114377634439
