    26
        -50.45752798  Gyration_radius:  2.44725316961 Dipole_moment: 4.613
 S          -1.83669384778799   -0.24038389081528   -0.23663526493199
O          -1.07557064058988    0.98490457920316   -0.27857793491719
O          -2.07692896942920   -0.80686038038359   -1.53085583713373
O          -1.11783332791880   -1.25609683915136    0.66980787217468
O          -3.14680972393409   -0.02793756272202    0.51429512192989
H          -2.86747808416786    0.09470321983640    1.48797927539706
H          -0.18031267496457   -1.55065498497907    0.30032588929384
O           0.09393072503972    1.26963154658939    2.10125594357546
H           0.95268255236983    0.85462061210216    1.94080892875003
H          -0.30141961922470    1.36484881661932    1.21615345519925
O          -2.17229661820692    0.11111312878635    2.86185905440539
H          -1.32855711774606    0.61170122204888    2.73471038226445
H          -1.91136603674805   -0.80588302243239    2.98478227509445
O           1.12533242043843   -1.81811869808593   -0.26290167495077
H           1.68291387464218   -1.12523498469622    0.15721636704838
H           0.99896399554055   -1.55436138373832   -1.19940326443254
O           2.41608124754327    0.29346240686788    0.75930027981155
H           2.14843361674924    0.82414727751392   -0.05115024765644
H           3.36543019710283    0.38035814303416    0.85228430272507
O           0.29646756587089   -1.05258539050838   -2.71153170606955
H           0.20621544344941   -1.75363471684183   -3.36076748491159
H          -0.61008316724795   -0.88607355699238   -2.37489849779560
N           1.51220725723619    1.44527523742312   -1.43854101614879
H           0.54387016540191    1.49362218250698   -1.12408302757563
H           1.51856173136518    0.79176081443516   -2.21431035478391
H           1.76425902522087    2.35767622435981   -1.79712288632598
