    26
        -50.44276458  Gyration_radius:  2.50687672514 Dipole_moment: 5.758
 S          -0.64489093324600    2.17601169491749   -1.03291585727260
O          -1.25265302684378    0.87917224686179   -1.25945661335432
O          -1.31788122728879    3.27813295276730   -1.61653264862616
O          -0.54172912342319    2.33234775932528    0.52155768360286
O           0.81846552787389    2.14991008646683   -1.46685199523028
H           1.33374125978445    1.53183457164356   -0.82220029683152
H          -1.21743995049417    1.70361197368771    0.90142817901380
O           0.54335742366791    0.27202702547483    2.49152848962435
H          -0.38163733752968    0.54255215484330    2.46222437879182
H           0.98909656933612    0.87792814569179    3.08654492644501
O          -2.23472051178157    0.58889684714553    1.41765741934265
H          -2.94576015890791    0.68731233678884    0.78103247171586
H          -1.86093488219084   -0.32068606029088    1.25410384981377
O          -0.71203031946907   -1.62698018177371   -1.71478612859657
H          -1.42901130267741   -1.94935154685386   -2.26337180553173
H          -0.85774992558236   -0.65535522820080   -1.62952035009881
O           1.98127156536023    0.61173419863256    0.14736901289902
H           2.06727016518352   -0.29500111193737   -0.25155606699474
H           1.44593495850729    0.51381507764679    0.95434793841833
O          -1.02739446353597   -1.71768131186609    0.99028952881302
H          -0.17109938614664   -1.53848134923255    1.38954811695172
H          -0.88562125149186   -1.78422584572880    0.02497027735446
N           2.09570225864275   -1.83772790250426   -0.94215083860947
H           1.17532666676421   -1.91589769414642   -1.36702033275886
H           2.24948511479277   -2.65810250498233   -0.36966667510585
H           2.78090228067077   -1.84579632437050   -1.68657264377445
