    26
        -50.43976408  Gyration_radius:  2.59298152195 Dipole_moment: 6.296
 S          -0.03541044305539    0.03987234591702   -2.60603525225055
O           0.84295432218812    0.01392048276542   -1.46754278084168
O           0.45697697167785   -0.45313876503280   -3.83817576078880
O          -1.35016192579705   -0.70161940115210   -2.20270676437194
O          -0.53658674408442    1.49731050257272   -2.80534465713692
H          -0.72884080143407    1.85267533295310   -1.90249448166869
H          -1.21254281248335   -1.18644350974064   -1.34417003815609
O           0.49920590751792    1.71413467773223    1.66140503036246
H           1.23775133313094    1.10251507865863    1.32687259368362
H           0.89967858034522    2.27081423946159    2.32973685868611
O           2.32854302919258    0.16549564408879    0.76384214043487
H           2.12884347577603   -0.74156564058494    1.09334903053524
H           2.00925749195551    0.14811443667528   -0.15316207602469
O          -1.82874823096009    0.32205260314482    1.36340218389202
H          -0.99068559551345    0.70893771914672    1.67628094773244
H          -2.13182450618087    0.92029545203623    0.67251669461275
O          -0.99677371800027    2.50022235641904   -0.41956537275529
H          -0.34546575493559    2.22909623978947    0.26942381942784
H          -0.90126246981101    3.44810477512744   -0.52916903853880
O          -1.26361848989710   -1.90761844041393    0.10287294023554
H          -1.45941671082924   -1.09864132047145    0.64987748168501
H          -2.06128750795393   -2.44084920289073    0.11619922981742
N           1.48225987854409   -2.35829616941974    1.33474255994882
H           0.61130039950420   -2.28308869785559    0.81713292392768
H           1.27342488419057   -2.74433728675699    2.24676386430315
H           2.07242944691058   -3.01796345216376    0.84394794324105
