    26
        -50.45108171  Gyration_radius:  2.43135959015 Dipole_moment: 1.771
 S          -0.32011210037497    1.61060811427475    1.29483097951678
O           0.28765298226739    1.83235217884273    0.00425210070999
O          -1.31206581008869    2.54519462263823    1.68376291675565
O          -0.90924737511657    0.16199241513732    1.29399768372720
O           0.76292687305858    1.47976325707652    2.37062837355422
H           1.38960684518367    0.74962428863712    2.06337238100840
H          -1.45384368610908    0.02226174746292    0.45601437415535
O           0.40170539241852   -2.28389743845072    1.69271778332851
H           0.20365665259832   -2.43860788656656    0.73488937279488
H          -0.32672977581758   -1.73634836013803    2.00346785321006
O          -2.26191621276080   -0.15101914034483   -0.86025391832041
H          -3.11268523492786    0.27927540664812   -0.75885311242334
H          -1.75443179064042    0.36231387910747   -1.57768170475962
O          -0.20209066755966   -2.19610651983154   -0.88810609195120
H           0.47569592056256   -1.52668078794952   -1.12150598188388
H          -1.05227127623597   -1.75279182899828   -0.97345233680181
O           1.61443035443209   -0.20618580924521   -1.13371800507961
H           2.25228607893548   -0.44047841663697   -0.45161755339359
H           1.15946556268851    0.58186113001689   -0.78119304268853
O           2.24726382007697   -0.47821950039375    1.63730881430365
H           2.88694262938293   -0.66983714282754    2.32588676654285
H           1.57580547942918   -1.23485960435401    1.65822766897123
N          -0.83983468621181    1.22314051983257   -2.56414067199697
H          -0.11002894158508    0.64009609809860   -2.95687811828152
H          -0.40243618546394    1.80664750485394   -1.85430574398331
H          -1.19974486820267    1.81990127320290   -3.29765078689525
