    26
        -50.45577738  Gyration_radius:  2.44058568527 Dipole_moment: 4.631
 S          -0.19904602256968    0.81851566546256   -1.86028972003995
O          -1.56789167486081    1.24695444290535   -1.92964260549716
O           0.67154497771222    1.10945344981852   -2.94749280332885
O           0.38479876550511    1.41592555167846   -0.55082206598758
O          -0.14494494032406   -0.70651838380774   -1.62691201862135
H          -0.79170021097492   -1.02847877007865   -0.88828041577343
H           1.40774943799667    1.23428269833905   -0.65385683699092
O           0.21408115842816   -1.00371041929483    2.20754114693444
H           0.13541343917297   -1.30403368798430    3.11415433180936
H          -0.03013738173252   -0.04210674146823    2.21236730793684
O          -2.83960774912231    0.99044180571531    0.33969560051191
H          -3.76366788827121    1.20587543700146    0.20234997110911
H          -2.38645593230221    1.17438182930867   -0.51984403010564
O          -0.66459902276999    1.48141214688478    2.00136557531186
H          -0.14018782589390    1.75473119760889    1.23606410898322
H          -1.56800839961203    1.40608240919139    1.65678443097870
O           2.70794682991362    0.73556282107672   -1.08045609416523
H           2.65446789038391   -0.20149408508302   -0.71985229994879
H           2.48638185470601    0.70519934895247   -2.02073566816528
O          -1.62254137286537   -1.43176461438000    0.28300773176174
H          -2.20595434394321   -0.65866404829537    0.40994633940979
H          -0.97462653284894   -1.41171202263786    1.02006486894492
N           2.18821661510593   -1.65176786975614   -0.06367516430347
H           1.67593168754327   -1.45744618116454    0.79201846915717
H           2.85539797711457   -2.38761857343967    0.12901944048791
H           1.51743866450670   -1.99350338654238   -0.74251961039694
