    26
        -50.44857913  Gyration_radius:  2.69833014261 Dipole_moment: 7.830
 S          -0.62630774085324   -2.83124356192840    0.37711525747283
O           0.69247794475588   -2.25825423558598    0.52510353475655
O          -0.90107650279257   -4.01244041621778    1.10320396930776
O          -1.64924528361257   -1.69912395688416    0.71762795792472
O          -0.91708767732411   -3.07013744190940   -1.11949125644305
H          -0.71872132616622   -2.24371453584026   -1.64850097925024
H          -1.18578562848861   -1.15037595346398    1.45013824499160
O           1.68043801799112   -0.23058869372781   -0.94285571465821
H           1.51189777509573   -1.01940168665757   -0.39406694447016
H           1.17889581988515   -0.38457452221445   -1.75292774371312
O          -0.56548527116090   -0.89669689596540   -2.49218204773084
H          -1.13116628627979   -0.26187896208114   -1.95424330601739
H          -1.00795329671811   -1.00961397282359   -3.33536036207804
O          -0.19058410233625   -0.38551946335863    2.29152188342414
H          -0.05400631177815    0.41575362952141    1.72388168231138
H           0.54657158683874   -0.97682516882567    2.08784592590335
O           0.18623785348662    1.46466286135571    0.44303864810865
H           0.64523051684227    2.31122993239121    0.63357435637058
H           0.82127761645484    0.92567125599794   -0.09100818599396
O          -1.97721604114745    0.58304407060284   -0.90063476712219
H          -1.29303095724134    1.08428464396401   -0.41082048704628
H          -2.26332034464234   -0.11562800291266   -0.29758293135275
N           1.64288029739049    3.72889068146269    0.94865233103395
H           1.29673185638033    4.55931706037341    0.48474444441128
H           2.58122157221102    3.54973898625753    0.61259312472496
H           1.69712588321258    3.92342434846455    1.94063336514619
