    26
        -50.46564009  Gyration_radius:  2.55256411414 Dipole_moment: 5.950
 S          -0.53166445101556   -0.65306916031761    0.30272307934984
O          -0.39072366971780   -0.55280109024923    1.75182679773897
O           0.57496313706100   -1.67130119675897   -0.12220164541120
O          -1.81476407455289   -1.11664001724452   -0.14235171530440
O          -0.15572393466001    0.62903671024832   -0.32844264005946
O          -0.16827611841634    1.72352429716622    3.07726603311975
H          -0.43295967961424    0.88867063793230    2.62832003324342
H          -0.08238948760852    1.50434966951115    4.00672244578568
O           2.21116810255624   -0.87997885389598    1.97765609296628
H           1.22887534720497   -0.90562759652704    2.04323235668339
H           2.41704872538699   -1.53104120254803    1.30162160815660
O          -2.03119004706905   -0.99770786560956   -2.79516518614133
H          -2.02736077124333   -0.02581568854823   -2.87994920656757
H          -2.14779189725217   -1.14941370567579   -1.83572547000881
O          -1.86123500389553    1.64362102854511   -2.15038559029436
H          -2.64878596454823    1.82018337172069   -1.63246515095187
H          -1.18834852692415    1.33243414117259   -1.51473352384945
O           0.41265527210699   -1.83603372748042   -2.66921200962656
H           0.38914472783137   -2.75540708006018   -2.94250902339492
H          -0.51118407258726   -1.47880845445560   -2.84186329349113
H           0.53272974384530   -1.72905313370642   -1.12644661293606
N           1.68274395838354    1.58045010126081    1.17294468998456
H           1.11355873520150    1.91147350733027    1.98603129357514
H           0.94991337267219    1.26494968675148    0.44251235250022
H           2.31304884755469    2.28860443799591    0.81425461486788
H           2.16654769933925    0.69540117346905    1.47633967006749
