    26
        -50.45123044  Gyration_radius:  2.47042616609 Dipole_moment: 4.656
 S           1.03420600236017    2.13764725046816   -0.32717133408172
O           0.98415444828909    0.89243835204897   -1.06073942809680
O           1.41675837391114    3.28430870953273   -1.06370085695603
O          -0.35113484106215    2.34113937069156    0.35682902169841
O           1.95032860901592    1.96089283117456    0.89679964495773
H           1.50395722990257    1.25942824981395    1.46126098845830
H          -1.08617223898614    1.87632794602402   -0.13759262554791
O          -1.54052523127233   -0.62507690081943    1.27191330798402
H          -1.98225377832040    0.01646042234688    0.70233127149257
H          -1.30237219984588   -1.37479189233616    0.69448408386885
O          -2.27220216800044    1.10214968391242   -0.85107639467700
H          -2.80189244436458    1.69086777636238   -1.39079995530341
H          -1.82993350126141    0.44771066591431   -1.48097772686176
O           0.70134277234693    0.23203103672083    2.32885380157167
H           0.43776374515124    0.69050516445314    3.12925913182547
H          -0.14840667024083   -0.08561531049575    1.91001022716869
O          -0.58225553770027   -2.53669097658419   -0.43620322051993
H          -0.62119599444097   -3.49030539402601   -0.36098795737267
H           0.36170947665341   -2.25944171889618   -0.22810543264048
O          -0.92584200072407   -0.54175212254843   -2.30639992879886
H          -0.10059686766575   -0.07360868238482   -2.09013582901967
H          -0.89061859383744   -1.36581019777177   -1.78983819780232
N           1.80714899000291   -1.57538425511829    0.13993106201214
H           2.69960321889340   -1.96259626207129   -0.13851662491556
H           1.85667472617554   -1.34811651033540    1.12642290753163
H           1.68175447502007   -0.69271724607569   -0.35584995597461
