    26
        -50.44737916  Gyration_radius:  2.49776995201 Dipole_moment: 7.352
 S          -0.57051171712768    0.03139119040877   -2.41733146992038
O          -1.14875797212507    1.11222520459331   -1.62896209865296
O          -0.22100546671592    0.37384678826345   -3.74467726173710
O           0.68187504425944   -0.46719379300924   -1.61384392346296
O          -1.47938659799830   -1.18054459353602   -2.38093062640685
H          -1.62291386678713   -1.51500978957910   -1.38706011486247
H           1.08397433940905    0.35270509634934   -1.20340070484926
O          -1.71315756819528   -1.87738017251905    0.00186599026558
H          -0.80002273521915   -2.21274081822946    0.22411604803448
H          -1.83396264462032   -1.04505877081321    0.49142482419295
O           1.26039338294983    1.82735634589231   -0.61481095171948
H           1.01138890104063    1.82773105427999    0.33187989711980
H           0.47057004458545    2.12229611869354   -1.08808431217620
O          -2.04134572646552    0.74010776877597    0.76222466364034
H          -2.95479652081124    1.02903234055331    0.79936549805455
H          -1.73466382705900    0.91334983490705   -0.16854649071619
O           0.17813498255878    1.78221224312004    1.90356919947290
H          -0.65996849890933    1.36886904098594    1.61285984942219
H          -0.05200297533358    2.60716474780800    2.33413802190082
O           0.80465955203129   -2.49685249516113    0.35165524074302
H           1.25885956547506   -1.82810484091659    0.92050632688687
H           1.06318282458968   -2.27135382964358   -0.54727850223350
N           2.12041387975166   -0.51281002744327    1.65885318240931
H           1.47900639115466    0.19904189937357    1.99148559088896
H           2.72419176093554   -0.07813971484808    0.97143329239092
H           2.69584542864409   -0.80214084830614    2.43954882132035
