    26
        -50.45284139  Gyration_radius:  2.44724948774 Dipole_moment: 3.824
 S           1.40299823827425    0.82349664803411   -0.71222662694701
O           1.41715113663408   -0.37438987341549    0.10215498806014
O           1.43788792846477    0.60395137006559   -2.11396741930225
O           0.17585265597253    1.66988965833974   -0.29797671974487
O           2.55030033031102    1.74085833742953   -0.27498122563838
H           2.32986939981870    2.00075660643407    0.66993709824987
H          -0.72406767057440    1.24023587970040   -0.55937059101236
O           1.63751233173957    2.33576977012877    2.06027203347845
H           1.17267960418784    1.52620040743304    2.36460456650190
H           0.94932955931579    2.95999081582759    1.81643843437978
O          -1.89181918962194   -1.05483826379374    1.14966532721981
H          -1.37135346295004   -1.77407464780169    0.70181459506155
H          -1.27664687573523   -0.65205300926311    1.77984011822668
O          -2.06668720141136    0.63126488709464   -0.76767584758667
H          -2.07264282379805   -0.07286330011480   -0.03205666948103
H          -2.75752745335703    1.25829967453251   -0.54345012460711
O          -0.23191098942323   -2.60141357986497   -0.18652443496038
H           0.54940276494524   -2.05125922980411   -0.04251608231431
H          -0.48651946813201   -2.39404639554326   -1.11472968207343
O           0.40731385494428   -0.03500803350606    2.46623214170289
H           0.78956469084653   -0.24070578678155    1.57719911382480
H           0.79438049902181   -0.66562500500225    3.07722207723465
N          -0.66967041047463   -1.42042086957336   -2.58773071857125
H          -1.46516052861068   -0.81087168087716   -2.43563613166056
H          -0.75682171409145   -1.81589041534652   -3.51557692047717
H           0.15658478371669   -0.82725397431838   -2.58096128957026
