    26
        -50.45731069  Gyration_radius:  2.41098754818 Dipole_moment: 7.334
 S          -0.15448168349979    0.82116787204492   -1.95658313229210
O          -1.17812378355759    0.70748874878622   -0.90430365232171
O          -0.49385895160642    1.73298927983307   -2.99281391036711
O           1.15521375714505    1.32935049859852   -1.20260335456980
O           0.24308511143360   -0.52315017857538   -2.40699725042016
H           1.38419188990395   -0.91555899292966   -1.62253076672059
H           0.81788811637265    2.01736448680613   -0.57557501625762
O          -0.07777734171325    0.63496294327470    2.43471674468660
H          -0.12603588293697    0.78179170832826    3.38033783588061
H          -1.00398244580362    0.43536331044871    2.13250716159324
O          -2.44805859341518    0.09151785252110    1.41340882572304
H          -2.22466947878861    0.46155502929165    0.54235953905705
H          -2.54137444596688   -0.85330430648121    1.25630662615072
O          -1.22590521010731   -1.86537844957272   -0.37789591019686
H          -1.06248263036620   -2.34394097906410   -1.19268810893711
H          -1.21355598557991   -0.91595005064149   -0.64707299443637
O          -0.12284038320078    2.71263423490405    0.56837819027248
H          -0.88165960285254    2.34292482409002    0.09409460011863
H           0.01285471680389    2.12082925332611    1.32949483863693
O           0.88340733115983   -1.63955648428013    1.24260943370559
H           0.67760850438252   -0.81756667249361    1.72707829474842
H           0.05398959284331   -1.86501390242256    0.76162589927653
N           2.21998854386278   -1.09255967458733   -0.92385369754905
H           1.76940426878348   -1.34509599210002    0.02439255848258
H           2.69191831235378   -0.19342021847440   -0.84925671226154
H           2.84525628434779   -1.81944414063486   -1.25513606200434
