    26
        -50.44906195  Gyration_radius:  2.47886936508 Dipole_moment: 4.099
 S          -0.41306451115591    1.41070604328324   -1.68326659240782
O           0.41845101852933    0.27879767815081   -1.32735203427655
O          -1.22051893082619    1.21307229533088   -2.83629246744800
O          -1.32399754941469    1.74042271331017   -0.46094078004170
O           0.46162886169252    2.65460657216419   -1.77192855876476
H           0.92869228397140    2.67656194874645   -0.86402412116714
H          -2.13213558148687    1.14584828261038   -0.54279439266138
O           2.25930253826397   -0.34698890112617    0.62745434290856
H           1.65322289445451   -0.19199953731157    1.36139297912982
H           1.73118443892516   -0.22274354846927   -0.17746335401388
O           1.47199330547405    2.37821839786973    0.54105764514118
H           0.78208211241521    1.89309231116756    1.03944074487483
H           2.20714856146471    1.75112507885610    0.46925860230244
O          -0.18861188289797    0.62098152228881    1.89173620837624
H          -0.93992987631601    1.12947451671539    2.20045544832610
H          -0.56460618957781   -0.11313739860581    1.35499261421231
O          -3.04285796638690   -0.07137581238117   -0.98587256263366
H          -2.81850798318996   -0.05287288434865   -1.92357418624610
H          -2.53542792538190   -0.79325178654190   -0.57102388728011
O          -0.97696907713603   -1.36236376010360    0.21177831156406
H          -0.44727289426658   -0.88669124176899   -0.45573205888936
H          -0.39816796997988   -2.11794037219738    0.48280262484596
N           1.02330920003094   -3.07480989667244    0.81756082030707
H           1.75312349337639   -2.36752058543799    0.74978170503138
H           1.21738432631513   -3.78439779615642    0.12240506203104
H           1.09454530306331   -3.50681383960566    1.73014786659300
