    26
        -50.44906190  Gyration_radius:  2.47875134839 Dipole_moment: 4.101
 S           0.58325685300533    1.36859590896592   -1.66760046442528
O           0.52037321000800   -0.03653748715544   -1.31988697073497
O          -0.15356081072646    1.72444970859642   -2.82991689317625
O           0.05917486926546    2.18862336123567   -0.44871428519240
O           2.04434327911750    1.79435964678209   -1.73190940233117
H           2.40858776607673    1.51581618980578   -0.81915528507639
H          -0.94188283079880    2.22918413436122   -0.54545498247506
O           0.20966263826883    0.59231784286646    1.89817731080444
H          -0.06612430426202    1.45555775786911    2.20969093376821
H          -0.53377891425841    0.25617394241864    1.34796026147633
O          -2.40643068231520    1.84889759638332   -1.01331514188571
H          -2.20455261031732    1.72838800319256   -1.94856342323224
H          -2.46737745302301    0.96591511339895   -0.60432538685772
O          -1.61757038026226   -0.45678842875755    0.18423738502183
H          -1.64030977329129   -1.40972547372425    0.45013464936688
H          -0.89690313224476   -0.41197592189154   -0.47227297026916
O           2.62468334086314    0.93780791650669    0.58651564568804
H           2.80855942912243   -0.01078483668046    0.51357665937556
H           1.77502814985474    0.98751868871025    1.07159055397800
O           1.53992932244978   -1.68270736511699    0.64242563634983
H           1.15072240526358   -1.18779854415587    1.37291695636498
H           1.21658385658967   -1.25257885661606   -0.16548301207355
N          -1.12953520712149   -3.04596859297696    0.78432291189698
H          -1.40903464869840   -3.71822615903324    0.08119826427237
H          -1.35674492186230   -3.43338444554652    1.69141111414757
H          -0.11709944065678   -2.94712969938391    0.73243991522880
