    26
        -50.46135630  Gyration_radius:  2.48809421673 Dipole_moment: 3.146
 S          -0.39411168341570    0.19559130057579    0.92841105437340
O           0.93366425312596    0.63211315647231    0.51196339744203
O          -1.41923809996096    1.06922602609493    0.36975116162548
O          -0.62358483183419   -1.20130944618570    0.51327621131745
O          -0.49905227527501    0.25889808339010    2.45500083840923
H          -0.10394642219562   -0.62339516401448    2.76493044883197
H          -0.78783725647340   -1.32265791164281   -0.91643211034825
O          -0.86939532484065    2.61713134086790   -1.70476070905713
H          -1.05712355498045    2.15793105397178   -0.85478533204031
H          -0.56038419998441    3.49357551415421   -1.47232357443506
O           0.86302208607051    0.60183279448371   -2.09687473859486
H           0.33868741149333    1.41930663713681   -2.22550448041664
H           1.07839229103021    0.61107530021439   -1.13195301470608
O          -0.88647415227590   -1.17207284312102   -1.95274186635572
H          -1.75510548132458   -0.62456096682625   -2.02633284742682
H          -0.09804452406549   -0.48368274530334   -2.15365756328778
O          -2.84395765200549    0.44053162078153   -1.77859943224642
H          -2.57025921569231    0.64970271615009   -0.85957514845157
H          -2.66082732256944    1.24210871248996   -2.28091896966906
O           0.52722216917115   -2.02730471650198    2.83416495635123
H           0.08257116002482   -2.31245392801202    2.02503502533788
H           1.46189242337955   -1.82188835002638    2.56287797925146
N           2.79812815048408   -1.11512579687794    1.77077328239736
H           3.32094195429712   -1.64433143631701    1.08430506138993
H           3.46489573607008   -0.63538719655667    2.36209873880444
H           2.25992438181845   -0.40485375539186    1.27187163153252
