    26
        -50.45364258  Gyration_radius:  2.46031374752 Dipole_moment: 5.004
 S          -2.06907402830007   -0.41284674914034   -0.20810332657703
O          -1.18464402447841    0.69509873485983   -0.48089316531724
O          -2.85963152608732   -0.86697264227668   -1.29450157144147
O          -1.20987595635318   -1.58759698420022    0.32620630045287
O          -2.98174284016971   -0.05177595615131    0.98260187401842
H          -2.37709335212847    0.20100252523766    1.73282909908834
H          -0.26807072290686   -1.31855107392191    0.62235261510915
O           2.14556850142641   -0.43874199616228   -1.43279477217587
H           1.31386224420993   -0.68797576195283   -1.93092835014806
H           2.87190193902920   -0.90285608899620   -1.85076919212517
O           1.10580759690053    1.60633538586078    1.97018357062411
H           1.55008113418709    2.29117820229633    2.47096374227253
H           1.12225035974943    1.89282728201313    1.01170239635697
O           1.15898567249996   -0.96810211768217    1.02518628743447
H           1.60537703824226   -0.84497148147948    0.16113150098798
H           1.21384590163711   -0.10081801286607    1.46253458922990
O           1.13190937667682    2.05065146447192   -0.59538129692051
H           0.21366399543069    1.74809147916330   -0.69524351932231
H           1.66773346037512    1.33512595694120   -0.96974974839109
O          -1.16576991788030    0.37152439714901    2.78128775232455
H          -0.78159990809758   -0.49318179982072    2.94843060914191
H          -0.43086748560038    0.94653663478842    2.48455146297382
N          -0.16288300132576   -1.08291681520149   -2.57794974712397
H          -0.35477614367816   -1.03988602323667   -3.57199598434086
H          -0.73344293343436   -0.37190304713359   -2.13007455259722
H          -0.52151535992661   -1.96927555256874   -2.24157656350545
