    26
        -50.46815424  Gyration_radius:  2.47600588497 Dipole_moment: 5.894
 S          -0.90801503783780   -0.08624755983899   -0.67478071759447
O          -2.14535670284465   -0.40439448791838   -1.54064722399915
O          -0.51322988919529    1.28896691109695   -1.00839616629529
O          -1.28403377984876   -0.17779766244655    0.72993719180899
O           0.15684674651388   -1.01993433737873   -1.01658102054146
O           2.45029767114592   -0.53131226252321    0.18417782615002
H           1.69386320242339   -0.95168492862491   -0.28232432066846
H           2.39312093612270    0.74044216872503   -0.51578692569034
O          -2.15886706079017   -2.62465605035901    1.23704683254416
H          -1.80442980937976   -1.71332178918346    1.15370852078288
H          -3.01588398770496   -2.54079293994993    1.65801119796714
O           0.36485772996145    2.93706503173576    0.90202660731066
H          -0.29444261972575    3.45293088390838    1.36806248581183
H          -0.12591714519215    2.38940897661392    0.25298556638044
O           0.93732593844157    0.47489185494451    2.08413017284679
H           2.06486348469631   -0.27766185024003    1.06070100310664
H           0.89767789579806    1.42960179613038    1.92008545765528
H           0.08949370780726    0.13387806880354    1.74010095168694
O          -1.71719471966895   -2.91790494142352   -1.38661123735266
H          -1.94825907083865   -3.06718275488366   -0.44527587743403
H          -2.13484748428717   -1.40753440046913   -1.58553708562691
H          -0.78337653126537   -2.65961483422709   -1.37814956083298
N           2.06485076511363    1.68151048084515   -1.01758357011583
H           2.11171507864336    2.46229172209374   -0.36273603599605
H           1.03182966005916    1.51175030597032   -1.20628725449396
H           2.57711101185817    1.87730261860342   -1.87027682741127
