    26
        -50.44658686  Gyration_radius:  2.62231659787 Dipole_moment: 9.279
 S          -2.76043178449380    0.96810126517957    0.58770893160146
O          -2.22542468283703   -0.10999854758578   -0.22885118874282
O          -4.16543861179230    1.12696747178434    0.57447762622457
O          -2.29645078561024    0.73879004060680    2.04565714757520
O          -2.06088250705555    2.27209074973214    0.16023661177393
H          -1.19158092902698    2.05469033564057   -0.31341887093911
H          -1.34193009566285    0.42504437510253    2.11139159011175
O           0.13138667883308    1.64857692316224   -0.97745893445722
H           0.83428820756621    1.57147363653864   -0.30778081124903
H           0.04172611160292    0.75812625378592   -1.36948349096267
O          -0.78749799514393   -2.14782503173165    0.45656539446192
H          -1.42898280197715   -1.42047046482765    0.25010509009236
H          -1.31314123946463   -2.90408503325057    0.72039104813309
O          -0.08126582418542   -0.93037535724018   -1.95122855569208
H          -0.14996045431151   -1.48386086686220   -1.15578391214835
H          -0.99249872779541   -0.77146262616377   -2.21417467629708
O           0.09660207741233   -0.20706096275885    2.15849498747397
H           0.82247814906525    0.27647127705545    1.72663721532067
H          -0.02541894463360   -1.02771822521853    1.64975417171443
O           2.13074390478170    0.95351176715335    0.73328116272703
H           2.46456636575612    0.30394385529632    0.04992760030921
H           2.88335151512438    1.45197251700033    1.05230549610734
N           2.83115928488147   -0.71955598608482   -1.22194661949639
H           3.09893791953648   -1.65342852714497   -0.93678081099650
H           3.53096477654575   -0.37875305382490   -1.86943577477807
H           1.95470038278529   -0.79516576441441   -1.73059044793073
