    26
        -50.46564010  Gyration_radius:  2.5526188127 Dipole_moment: 5.951
 S          -0.57847930479765    0.66755700654334    0.14112928265983
O          -1.98108430938252    0.78439826961698   -0.13894242865360
O          -0.17252753014985    1.19127003956749    1.44138798915092
O          -0.09567560535048   -0.72034797939316   -0.01433616480450
O           0.23845531762035    1.51434473050990   -0.88732604545636
O           0.67882147026313   -0.29849616415304    3.45255624947603
H           0.88450480583407    0.29359981499704    4.17812043273399
H           0.19574664273632    0.24637444833063    2.79054134268361
O          -1.88481940730656   -2.55047438482629   -0.85523687017923
H          -1.17759977854121   -1.94353157247365   -0.56345885904558
H          -2.52645625590440   -2.56648604388418   -0.14271857235257
O          -2.63097081915584   -0.44348526239296   -2.41243027376892
H          -2.60416650871714    0.08138257262304   -1.58725632206074
H          -2.46921399017868   -1.35801930102381   -2.11364375913089
O           2.32846760866534    1.82075300068092    0.91576491140385
H           1.38381682202187    1.78059625878889    1.19128566648447
H           2.29468642217588    2.14863458286299    0.01318119339773
O          -0.39061450286031    0.59122861246095   -3.18798006451786
H          -1.25199795881981    0.11163090200953   -2.99087976896897
H          -0.62409087366444    1.30764912579304   -3.78186815528258
H           0.01269766257398    1.14592184749650   -1.79667680641768
N           2.11527120639708   -0.78893056719209    1.26865631637787
H           1.76430498184678   -0.80359248107774    2.25413576532289
H           1.22237779671859   -0.87406646025434    0.66398760714300
H           2.47877974026441    0.18264863797317    1.08615216891397
H           2.78976634769290   -1.52055965357887    1.07585514488976
