    26
        -50.44624518  Gyration_radius:  2.5793481638 Dipole_moment: 4.301
 S          -0.26961995707660    0.22607322343790    1.38511398976399
O          -1.10481454932021   -0.84950813483246    1.82441143724520
O           1.09050301777502    0.17646248611855    1.83128247340447
O          -0.27267171526346    0.27749393766528   -0.17787938570183
O          -0.88525043740192    1.58320823550973    1.71850701419994
H          -1.77401416089566    1.59405088704291    1.20985055217949
H           0.33000730402039   -0.47863165966173   -0.45534691778388
O          -2.94400740976935    1.49837535934092    0.25103338915724
H          -2.72790268744351    2.03766541787828   -0.51341840437068
H          -3.05033283696367    0.57442549060593   -0.10439057415022
O           1.42272760417426   -1.61197944838795   -0.40160767956073
H           1.71258759247006   -1.49037539784013    0.50972359426678
H           2.13024799279499   -1.18920882443683   -0.95974340375046
O           3.11504173132095   -0.09572575808584   -1.71247252627871
H           2.78979776820761    0.21626426217888   -2.55819514662535
H           3.02590512117234    0.66364594193085   -1.07537542247114
O          -3.27207594227974   -0.88555405827770   -0.82954915233389
H          -4.02160343717426   -1.32732469607684   -0.42529889363164
H          -2.51757706527804   -1.50586720460319   -0.72364146370211
O          -1.32076561122509   -2.61631597826286   -0.17786680748404
H          -0.41845731210244   -2.63958048652563   -0.51195036594704
H          -1.27680124701335   -2.15834312737821    0.68095119979446
N           2.63636991299751    1.84477667197018    0.08316230372510
H           2.14767595028409    1.29639615714174    0.79166810100114
H           2.01329918164767    2.59491796429696   -0.19037793270112
H           3.44173117234660    2.26465873921627    0.53141002191379
