    26
        -50.45497458  Gyration_radius:  2.46822661579 Dipole_moment: 1.084
 S          -1.41654030909733    0.64133865249732    0.30318829932768
O          -1.24035479365679   -0.70045045064731    0.82572696454436
O          -1.38849304379837    1.66996019582688    1.28917393920628
O          -0.32349280119863    0.87435584552101   -0.75809993494526
O          -2.70025484442394    0.71791207617823   -0.51154072274939
H          -2.61053601168532    0.07283648810085   -1.30110153185957
H           0.61366583164163    0.79079634224915   -0.30537874161966
O           1.88924869576754    0.61435414897323    0.39361126346489
H           1.76069304067011   -0.18179576279350    0.96178398960306
H           1.82771396722108    1.38942348680362    1.02665303137897
O           1.11266133144824   -1.49758094418710    1.80584179240474
H           0.17861683718920   -1.25736097228095    1.65233323797737
H           1.22817646646171   -2.37642030703800    1.43712758764549
O          -2.42951225659153   -0.96805507082241   -2.38535424080148
H          -1.67927506280601   -1.54727315938926   -2.05497450066043
H          -3.20528506054879   -1.53094854276896   -2.43312821806163
O          -0.52126891468361   -2.27961876180031   -1.21867503711607
H           0.32861162876827   -1.90773102706640   -1.52855210354430
H          -0.74171071927237   -1.81988684506671   -0.38766351113166
O           1.67157415618911   -0.85700784161273   -2.02309514821444
H           1.18909509280007   -0.17730154290665   -2.50050376895991
H           2.09826395169812   -0.40845839320603   -1.28192691283138
N           1.24457811086642    2.52502144354227    2.08653062842939
H           1.43154995245883    3.50429781610183    1.91196225422349
H           1.43408823065261    2.34319462177519    3.06431924134299
H           0.24818651396798    2.36639849409406    1.93174213298150
