    26
        -50.45175860  Gyration_radius:  2.48202216661 Dipole_moment: 4.589
 S           0.04803287603904    1.59461374289732   -1.78368329002555
O          -0.01728575722108    0.18137936868464   -1.46821973163960
O          -0.32549424719013    1.96247847339297   -3.09638865917542
O          -0.89138207977184    2.33306232300691   -0.78498183430000
O           1.45879125411307    2.09489292964756   -1.44771834325234
H           1.77572347545817    1.59550726133884   -0.61999000078041
H          -0.63821795056625    2.14857457409670    0.16573296911662
O          -1.14115509544649   -0.53635095243619    1.97977502142538
H          -1.69920904416283   -0.64734249422370    1.18159262655863
H          -0.32800313574581   -1.04017486999031    1.79870281525922
O          -0.31284956902909    1.86560457278230    1.69662213252400
H          -0.79884235503640    2.45636798019861    2.27392819282040
H          -0.66973391029760    0.92798964392376    1.87156092222821
O          -2.35681746725466   -0.51251582290793   -0.42652875926761
H          -1.50923121625410   -0.31432266908134   -0.87561695672140
H          -2.94353987344718    0.21545111257151   -0.63771209436156
O           2.05207611628291    0.90158536533255    0.71883360510216
H           1.80536354688134   -0.04572247804901    0.76166814243920
H           1.42033007861372    1.35460097648966    1.29719342119013
O           1.23171933977223   -1.66518911133809    1.15859313256269
H           0.93594983106927   -2.07203681214926    0.29224435763868
H           1.84949616233579   -2.27661232514467    1.56109339014998
N           0.38405977695329   -2.62995221367411   -1.15659143138294
H           0.29100856375128   -1.68962616931816   -1.53558270992677
H          -0.54761144801478   -3.02444929709569   -1.11261284075882
H           0.92682213818724   -3.17781310887901   -1.81191408743924
