    26
        -50.46652589  Gyration_radius:  2.476167396 Dipole_moment: 5.884
 S          -0.12189125347442    0.59767792513135    0.92475889069460
O           1.30147996959203    0.53087958457193    0.61985212557691
O          -0.83752626322903    1.41042642006209   -0.06953563760437
O          -0.72279832870665   -0.72484676986088    1.02703509598338
O          -0.31032748459624    1.35079901030315    2.25915996172184
H           0.22054785319834    0.87249863048324    2.95572985888569
H          -0.87264743087650   -1.74677114137873   -0.31149395921326
O           0.03671807676783    1.81556697911811   -2.55343138408993
H           0.63138924413009    2.55338045333106   -2.69428461397536
H          -0.18197084559517    1.81805259706613   -1.59691334993180
O           1.20559148329206    0.08148054093502    3.93351595614734
H           2.02848852985544    0.56523306284110    4.03243984681677
H           1.41455110536247   -0.71125767434952    3.37429448202569
O           1.25579209534074   -0.58253119715791   -1.81778111782692
H           1.43057072309345   -0.21946897348543   -0.92833843319174
H           0.96030141325848    0.17829772359625   -2.34073881618605
O          -0.88600492021250   -2.01060741618827   -1.25982577942411
H          -1.71367794993906   -0.90041206737212   -1.72611697246662
H           0.00181695649222   -1.72226289010856   -1.58630322519652
O           1.60218509170270   -1.69085117635934    2.03714495242796
H           0.68061269745637   -1.90579956978382    1.84158904137747
H           1.79049637459471   -0.95224914925451    1.42844784179015
N          -2.16500727398846    0.10386759492148   -1.88052718670831
H          -3.17843910684396    0.08718495043337   -1.89989531531691
H          -1.77920129888747    0.54088573274394   -2.71744940941143
H          -1.79104943888165    0.66082681035384   -1.05133285298312
