    26
        -50.46564013  Gyration_radius:  2.55266069306 Dipole_moment: 5.950
 S          -0.80039508676596   -0.36566117959645    0.16010798373910
O          -1.06706713385532   -1.12903751616468   -1.05472283154565
O           0.65182004673384   -0.12831436511597    0.29544750056481
O          -1.43112660535392    1.03640059436897   -0.11987903573824
O          -1.36847002886105   -0.92399266281115    1.35379888504238
O           1.76279734069899   -0.68254951861928    2.68648553479202
H           1.43091883626784   -0.44436815649100    1.79945458832976
H           1.63461294468354   -1.62941796547835    2.76836718637514
O           0.76810181368161   -2.45478121689885   -2.42004744827703
H           0.04956994498753   -2.12772564766590   -1.83248267742899
H           0.32850869182375   -2.85707908732884   -3.17119236496874
O          -0.58835667791462    0.40862065051907    3.52492953545796
H           0.35186689114682    0.14945191729012    3.50208238005810
H          -1.01143756029709   -0.18463267068780    2.87208986396607
O          -0.92972266321317    0.79885156277109   -2.84122856582421
H          -1.32281463292636    1.55206977630301   -2.39244206452798
H          -1.16263197928669    0.03146124345103   -2.26957135701161
O          -0.93439458217147    2.43924845187729    1.96017994061815
H          -1.22441195782147    1.60345452241657    0.68592780193999
H          -1.73216462553889    2.87472290527522    2.26746687987458
H          -0.73188858071026    1.73104060586019    2.64447877454804
N           1.50458157672737    0.08150342107938   -2.10616969370283
H           1.48806771370494   -0.92142026404334   -2.40359502105001
H           0.68234640616167    0.55220850763321   -2.56639577195093
H           1.26014453315884    0.05366130766478   -1.05277807906602
H           2.39154537493470    0.53628478438410   -2.29031193421242
