    26
        -50.45124487  Gyration_radius:  2.47186824828 Dipole_moment: 4.077
 S          -2.34349470391220    0.09300568128171   -0.56754658293994
O          -1.43161429375975   -0.99982558878929   -0.28870056665919
O          -3.70891382445609   -0.25544596050648   -0.68459711815046
O          -2.11756967563409    1.18819635316888    0.49602670200930
O          -1.86945274064222    0.78567573757865   -1.86848117885874
H          -1.05493872466074    1.30494985106286   -1.62217675359144
H          -1.47896633507457    0.89740283046770    1.24937269535080
O          -0.44612940355357    0.53791445059992    2.27761937122568
H          -0.30780177817685   -0.42721336475693    2.25011993057614
H           0.37786281352615    0.92152575297535    1.91853962849923
O          -0.01280106028764   -2.08659571737863    1.63447182904396
H          -0.55150101921596   -1.79511562521832    0.86720065032154
H          -0.41758785960023   -2.89090060448651    1.96200442422640
O           2.27257210856597   -1.14859102082840    0.28222940748254
H           1.88576845668593   -1.15752344700328   -0.63029814616428
H           1.64679157496506   -1.64506653295495    0.82986328697868
O           1.74887553251072    1.28754933440530    0.89146777760535
H           2.01470629733553    0.33745533959480    0.65814574637159
H           2.56119888519415    1.74995441349349    1.10023055057002
O           0.13115630369457    2.20214266853322   -1.03995483360154
H          -0.35530848521043    2.88883939470139   -0.57745931698677
H           0.75408313604329    1.82169524113307   -0.37869820984528
N           0.88472972161546   -0.94187308523005   -2.01215247968417
H           0.92164556271224   -0.01887735531300   -2.42749468643812
H          -0.02107108892004   -1.03168092195182   -1.55502393279732
H           0.91776061039751   -1.61759780440628   -2.76470820443402
