    26
        -50.45319995  Gyration_radius:  2.49184779203 Dipole_moment: 5.370
 S           0.70640523654553    0.13749691551153   -2.14665625338601
O           1.41699277783812   -0.97762175797614   -1.47969073515181
O           0.67965231005476    0.02529441118720   -3.56368458527358
O          -0.64738827505347    0.23957809058924   -1.54255985307589
O           1.45271767933961    1.45246675024284   -1.75686348716211
H           1.43251922881746    1.55052780565294   -0.77901255774937
H          -1.03970096268502   -1.23249619724657   -1.32577321152590
O          -0.92101116147406    2.83038879937949    1.42852874956323
H          -1.42754351111776    1.98780781876456    1.30427991131536
H          -1.25979960543183    3.43341553768087    0.76432040307712
O          -2.01767699246474    0.53366474731349    0.75314176052369
H          -1.70398841748702   -0.26027109590797    1.20824741815133
H          -1.58903442505477    0.52209749971088   -0.12379650162194
O          -0.77315156873532   -1.87100190948432    1.60635809869671
H          -0.75550918668059   -2.37904832795086    2.41775091006091
H           0.14059237909195   -1.46017411669766    1.50979867128891
O           1.45372095381339    1.89826753873964    0.86857757003829
H           2.10479512656775    2.57665452837646    1.05460798963651
H           0.56468680157147    2.27877837102707    1.11641063307395
O           1.54986148682186   -0.83422565030607    1.14980003422445
H           1.63850897137898   -0.93592810714166    0.17485753859100
H           1.57168485034272    0.12446052751263    1.29084291764182
N          -0.75574025845468   -2.23414379653906   -1.05194099901793
H          -0.90089582351575   -2.33994559515057   -0.02482346466409
H           0.27804112787491   -2.10630547387437   -1.24959589303478
H          -1.19873874193060   -2.95973731342235   -1.60312507423933
