    26
        -50.47231567  Gyration_radius:  2.41617003311 Dipole_moment: 3.654
 S           0.49252656909648    0.03892328460065   -1.37665136868149
O          -0.77411042686677   -0.27384027183183   -0.69892900283786
O           1.26555683344314   -1.14628103356722   -1.63971584353166
O           0.15143916932490    0.71885572742042   -2.71619395013636
O           1.24341358883678    1.00886889028069   -0.55423431643618
H           1.54477747830551    0.31187921757340    0.80610522414507
H          -0.53592279614780    1.40770027193329   -2.49431969358872
O           1.56629983070619   -2.60261959633153    0.54312415268282
H           0.62965480498444   -2.88855487075581    0.58035628449913
H           1.64415409671742   -2.20486054753049   -0.35252963474379
O          -0.55521430388603    2.67720795931055    0.44359089117769
H           0.19957777010690    2.14708806064916    0.10867960960241
H          -1.00110287168835    2.11970232411712    1.08977383058422
O          -1.17182769803391    0.14793577295322    1.83564819954295
H          -1.11187454602585    0.04134484080406    0.85141779305005
H          -1.77774343554890   -0.53770143224652    2.12399358373461
O          -1.50514413167783    2.58809380976468   -2.02254768266638
H          -1.24575727206748    3.41004157901028   -2.44457820393763
H          -1.28862252705987    2.69002752516339   -1.06216261891351
O          -1.09928249907311   -2.73655889849602    0.21641566760782
H          -1.37108064900098   -3.32764171418988   -0.48704732868530
H          -1.03402509581859   -1.84545623352377   -0.19430743758727
N           1.47489798068901   -0.28111883496845    1.68704876171944
H           0.49892386041819   -0.14287306652567    2.03256508259000
H           2.16906464273244   -0.01660125075183    2.37710574146278
H           1.59142162743372   -1.30356150270891    1.34739226926498
