    26
        -50.44078197  Gyration_radius:  2.71965523489 Dipole_moment: 8.705
 S          -0.00251882829910    1.18967218271346   -2.90711909067428
O          -1.21669139419566    0.89286080449746   -2.18144042602103
O          -0.14265681446527    1.69130857563978   -4.22240144014797
O           0.85232880059550    2.14641912519146   -2.03884070015103
O           0.86687998624636   -0.10129719499107   -2.96410779741085
H           0.93053408930434   -0.46703778486635   -2.04956918683290
H           0.38950007661668    2.36072869976219   -1.16758360884394
O           1.09947056311199    0.85033874800138    1.58665143926085
H           0.40842351220275    0.37104542182728    2.07684776501420
H           1.26863581789538    0.29508960870556    0.80444668437879
O          -1.09490371845486   -0.60540243271270    2.42511140692629
H          -1.70894369267970   -0.12335967937754    2.98124273353362
H          -1.46936402830048   -0.58407491332234    1.52486079732612
O          -1.95731952945156   -0.57778011752020   -0.18452005081728
H          -2.61059970163536   -1.16087863657845   -0.57444368883041
H          -1.77812361351189    0.11110086271628   -0.86989882810573
O          -0.12143815108992    2.74746540459446    0.25420749103685
H           0.27494744814934    3.59599677486590    0.46051797966801
H           0.33998111531571    2.07471062380161    0.82772732243859
O           0.77033051190404   -0.91040286520123   -0.48297833134166
H           1.02078259391540   -1.68952501767308    0.07188171231495
H          -0.19772019471847   -0.84989279010495   -0.38817026827727
N           1.03641615227231   -2.69870540232867    1.50721122618895
H           0.33821644440495   -2.23828691606333    2.08364108062441
H           1.92096180319703   -2.64463931157634    1.99672328029901
H           0.78287075168445   -3.67545379001027    1.43000247844403
