    26
        -50.44582744  Gyration_radius:  2.57598255163 Dipole_moment: 6.120
 S          -1.22373183516572   -1.67766349080722    1.54049371960383
O           0.00396915793481   -0.92804185057876    1.71466374452730
O          -2.02688468141847   -1.84582482752579    2.69130932373080
O          -2.01255456518436   -0.96658753724126    0.39042505242633
O          -0.91347776030450   -3.04624882221848    0.91868035611977
H          -0.31237118898435   -2.99482397956639    0.11073410734840
H          -2.04374404731293   -0.01265267447313    0.72982052135705
O          -0.67901531626289    0.19683531362806   -1.85834901235039
H          -1.34396089083417   -0.33832027236985   -1.40921622121282
H           0.18311224212759   -0.10334029476213   -1.49867279774982
O          -0.67933274946093    2.58889971424951   -0.76590407712660
H          -0.68349493231721    1.73500981590876   -1.27780325998242
H          -1.32585488756029    3.15742491145813   -1.18657837575032
O           0.73577065430605   -2.95317909124778   -1.06323486342746
H           1.41942389369731   -3.60580626323439   -0.89808956336600
H           1.15877402665914   -2.07348191898678   -0.98666770786299
O           1.50819047286302   -0.49722793122268   -0.42920959953858
H           1.05291393130101   -0.61870752574060    0.42918165262871
H           1.91099013965195    0.40637261276744   -0.38268350309360
O          -1.59837950885612    1.31541586673384    1.40856696881083
H          -0.84363284410648    0.93101675022559    1.87142020080684
H          -1.23507352430973    1.88887813336614    0.69315453622580
N           2.22776085586684    2.08988745874873   -0.20800700704031
H           1.31322189188258    2.50415669123699   -0.36592356749558
H           2.86887773597365    2.48509857191618   -0.88373045419957
H           2.53850372982766    2.36291063972661    0.71561984662497
