    26
        -50.46942755  Gyration_radius:  2.44010720313 Dipole_moment: 3.761
 S          -1.40898942990792    0.01506103379033   -1.07468095555594
O          -1.02431855871225   -1.11132168324126   -0.22483127446793
O          -2.72271324638666    0.51435946292001   -0.76080087340692
O          -0.38557791267594    1.08143158500460   -0.95511633041282
O          -1.39534493528042   -0.45348711640669   -2.54923613023613
H          -0.47246040230877   -0.76095422324656   -2.75030618832059
H          -0.51769906954607    1.57702589373538    0.49332351881062
O           1.18358451629344   -1.71458593774164    0.95145590155096
H           1.25270845838492   -2.66963660857923    0.96895015049003
H           0.31401753069989   -1.51032710003578    0.51302845114641
O          -2.57178474465309   -0.03841838543804    1.78768764613009
H          -2.88415434725658    0.20789599425703    0.88584916203648
H          -2.16854258464592   -0.90192798070322    1.64470982853366
O           1.09863554771655   -1.06363596511770   -3.07212159360764
H           1.33812664566212   -0.58409767553731   -3.86749128577052
H           1.60981244980406   -0.65177292065406   -2.33246137992072
O           2.07552474729576    0.12704691047678   -0.90066777324157
H           1.95860097093155   -0.62223087169029   -0.29305731679317
H           1.20509584282011    0.58381991794783   -0.91823983425051
O           1.84676752348878    0.66558154205936    2.06900613156701
H           1.66419664449788   -0.27999663410048    1.92194940453380
H           2.36363864774255    0.93733952761839    1.30162668856262
N          -0.57469147172213    1.66955642376368    1.55649757341339
H           0.35334831935869    1.33904829703929    1.93069205775825
H          -1.36629977587612    1.01881328202683    1.84131829165042
H          -0.77148135571208    2.62541323185470    1.83291613979555
