    26
        -50.44413672  Gyration_radius:  2.61902246676 Dipole_moment: 11.906
 S           2.56457969723458    0.50571516622319   -0.74150751679277
O           1.20001932695223    0.55986635178241   -1.33047410903411
O           3.42969310868470    1.50592364878493   -1.26379997311086
O           2.41004649830467    0.55874240851269    0.73520210000597
O           3.12741265115887   -0.90765418425935   -1.08989815106007
H           2.69160098675613   -1.53170776774798   -0.46670437602028
H           1.12683138307437    1.42007685167943    1.01008028873025
O          -2.71574449043306    0.85288126429669   -1.08436950293259
H          -3.53925014137578    0.63720061478673   -1.52332869238504
H          -2.03232500487233    0.22967806952952   -1.46971502649895
O          -0.99346541646797   -1.87294252657506    0.81176569675679
H          -1.39169145636852   -2.59990924807586    1.29278915063982
H          -1.37633761819158   -1.04797707108509    1.15735896116587
O          -0.94783238718864   -0.90505110752415   -1.84446560342412
H          -0.09865277596736   -0.41909025697825   -1.84841639698391
H          -0.90605360519535   -1.47791698603897   -1.06620778640532
O          -2.13000078862920    0.57646730010977    1.42542361614374
H          -2.44571419525078    0.68862441253324    0.48279970777354
H          -2.83195294014016    0.89490054790904    1.99414168931079
O           1.81326364135229   -2.00597758067777    0.91699185158869
H           0.84930703951620   -2.02360902643533    0.81940598638228
H           2.04305502968683   -1.09292562679491    1.17167337684601
N           0.21426563535238    1.81229136944382    0.61605095918244
H          -0.62931171271191    1.41182725806497    1.05945785531638
H           0.37065501566165    1.40496829295254   -0.37374883417426
H           0.19760249905637    2.82559782556573    0.60949472897671
