    26
        -50.44686767  Gyration_radius:  2.50530755411 Dipole_moment: 6.095
 S           1.05412439364074   -1.79393349220870   -0.90161649174071
O           0.53571865708286   -1.62614598533939    0.44635949833407
O           1.03263120985689   -3.11524136083879   -1.41073385019482
O           0.24342135345357   -0.82438543668132   -1.82308491793283
O           2.45147992956850   -1.19945796096056   -0.97642963235307
H           2.45389690437119   -0.23732250751144   -0.55101582269025
H          -0.73133859796722   -0.97488103344151   -1.66286227517268
O           2.36228265824400    1.04734510894501    0.11815805565097
H           2.16277185368266    0.80789300990075    1.04331018375237
H           1.54554019277944    1.49149584784475   -0.24269556815329
O          -1.24162576099719   -0.33117042745884    2.04814755501432
H          -0.51127522954549    0.05889490585308    2.54135271477816
H          -0.81844753080225   -0.97667411308160    1.45606093150072
O           1.64525125191036   -0.22903649754316    2.40299541451119
H           1.28147868817114   -0.84465438487018    1.72876484226106
H           2.32866404110219   -0.71135631172065    2.87013953193190
O          -2.29952014780988   -0.93550418091430   -1.41949599993638
H          -2.42761458676839   -0.16558831687830   -0.81466888955644
H          -2.77648525538921   -0.74290828030200   -2.22907330177509
O          -2.51274722685669    1.12258209290484    0.27918821197824
H          -2.03532149408563    0.63197330861004    1.00107972852228
H          -3.38975983534176    1.30057327676088    0.62309544190709
N           0.12783320615313    2.02694895634723   -0.96995660901351
H          -0.74054236356521    1.94467413614578   -0.45204250471780
H           0.10614677194165    1.33190674176762   -1.70834420490340
H           0.15343691717299    2.94397291467607   -1.39663205199094
