    26
        -50.45971445  Gyration_radius:  2.42838353398 Dipole_moment: 6.568
 S          -0.43915668688095   -1.25209490988664   -1.78452462627915
O          -1.50801066804172   -0.30842866367532   -1.39741301380154
O          -0.81409162218170   -2.16772355257032   -2.80295347168980
O           0.76593741028010   -0.40193264505312   -2.29814427891125
O           0.05670058466985   -1.92166139079688   -0.54876276625641
H          -0.93620348566073   -1.69132326026788    0.53307013766937
H           0.89585206694915    0.42363148015287   -1.75339717208284
O           1.16643482979733    1.73538639027041   -0.85707005972733
H           0.27137387910950    2.07763667231830   -0.68990700500008
H           1.51142310471080    1.46692802871841    0.01223358803142
O          -1.47182897433450    2.02634524105482   -0.29908290200604
H          -1.50857284517495    1.14860633343175   -0.76906536965952
H          -2.10245989165409    2.59373653519846   -0.74347547509453
O          -0.79442329640092    0.92168664556605    2.13807133958004
H           0.17146884282829    0.81995631269902    2.04664865629031
H          -1.06188390437345    1.52524675420831    1.42437038675362
O           1.87144711610026    0.63316649189524    1.55853162833472
H           2.59356759862040    0.82065360683017    2.15917034815790
H           2.14894932643577   -0.16278056630184    1.02556638887525
O           2.54424697267240   -1.30526369592280   -0.06294307813862
H           1.64786511080384   -1.67262244480912   -0.24533784937651
H           2.84774578399484   -0.96471244085239   -0.90857221555168
N          -1.79355865812858   -1.22552751039742    1.00422193048768
H          -1.44506893605517   -0.42219434471501    1.61334406160422
H          -2.39680746515903   -1.87445480816050    1.49561650087451
H          -2.22094619291325   -0.82226025893429    0.14980431690132
