    26
        -50.45482731  Gyration_radius:  2.45565830513 Dipole_moment: 5.882
 S           0.56866311529918    0.76056692839468   -1.88790092460751
O           1.19471959975586    0.28658817235713   -0.65918462148999
O           1.27129681286223    1.79369389424808   -2.56339740147352
O           0.32279228076581   -0.45121378641411   -2.77830526981741
O          -0.83454452410299    1.30793067035936   -1.54838529428313
H          -1.35205585434856    0.77977885429806   -0.84857450107520
H           0.41279138254212   -1.34795376783151   -2.17589393453919
O           0.86915627870810   -0.52367156611338    1.89115694152740
H           0.40057604136870    0.25656955449140    2.22369326061618
H           1.15724363194018   -0.26650483187580    0.99683940044170
O          -2.06703358480923    0.13993313957041    0.34431202467131
H          -1.74973696116864   -0.76381776914201    0.53352557263417
H          -1.70508506325947    0.71323778081679    1.04670218063425
O           0.99827050788096    2.81360859075069    0.21338431562329
H           0.79466515480846    3.27144607904910   -0.60603553878534
H           1.31911226830873    1.94115973663221   -0.06966277303159
O          -0.68830137911724    1.79923963785348    2.03034224356830
H          -1.04359601111087    2.49350777065356    2.58689550598821
H          -0.10253729483376    2.24441985425542    1.37368912332048
O          -0.93980461936268   -2.22995336960273    1.10642381569977
H          -0.21027227290439   -1.66626544823022    1.49076236654592
H          -1.32631031815798   -2.71642684352728    1.83558571753031
N           0.62126873799044   -2.47582751529827   -1.30499194368240
H           0.65947128527530   -3.36330951395396   -1.78798696445718
H          -0.08570504496402   -2.51384098174806   -0.57230278066578
H           1.51495581732883   -2.28289525988318   -0.87069050068681
