    26
        -50.44274964  Gyration_radius:  2.55140076154 Dipole_moment: 9.103
 S          -1.58919561032478    0.95546225279113   -1.85412603201718
O          -2.30803431304736    1.07149863712327   -0.59970202825530
O          -1.78319230925799    2.00612471866954   -2.78315649293896
O          -0.09239099470149    0.74330449856184   -1.51661079126460
O          -1.93390701892320   -0.39763868267921   -2.51109128749761
H          -1.60766608429520   -1.10646161181011   -1.87946712675502
H           0.22603342650839    1.31769493430570   -0.72903807853126
O          -2.25093302289099   -0.59148790554181    1.32725295359406
H          -3.12138071859047   -0.58727501853566    1.72820708789598
H          -2.28910967326544    0.09147775623093    0.59372080172655
O           0.88478774380660    1.93928805327126    0.48354566556638
H           0.62793582339703    1.34525563396446    1.20884719904397
H           1.79780233490767    1.66197149948321    0.22275875186912
O          -1.05956367215020   -2.02466105405342   -0.70905479493978
H          -0.12263265226432   -1.82705895678235   -0.52802990542303
H          -1.54913594540839   -1.72277764013518    0.07388598492982
O           1.41064334330652   -1.62125029523357    0.50018658048957
H           1.06372294357295   -1.02917600897393    1.18844222957090
H           1.59359906252378   -2.46190427206701    0.92385004372267
O           0.13452216362962    0.00783089965780    2.34638899761187
H          -0.77623898709788   -0.20009677341940    2.03522711969372
H           0.06127013731674    0.28518657087637    3.26056517394185
N           3.04974573382031    0.72032579575142   -0.53339769009151
H           4.04667133481031    0.70404146011836   -0.35977119447476
H           2.90442195157060    0.93395483040333   -1.51248911892185
H           2.68222501305669   -0.21362934198562   -0.37694403854660
