    26
        -50.46788077  Gyration_radius:  2.39869640975 Dipole_moment: 5.648
 S          -0.54066419760369    1.25408246993317   -1.18112238974178
O           0.32526435958120    0.08244318634674   -1.25456369189118
O          -1.34815424240971    1.41225394325045   -2.36034245298365
O          -1.36283006918764    1.17474025698747    0.04932341847373
O           0.37501781990028    2.50635450151708   -1.01854790379393
H           1.00135975392132    2.30232309562242   -0.28344603890023
H          -1.73330019725254   -0.29312397659171    0.06536151709852
O           2.11424177532000    1.84990110215068    0.89351170235838
H           2.91711269320312    2.35437040964435    0.75253031531983
H           2.32727419939980    0.90213242986071    0.64860306803206
O          -0.02324566318768    0.71107821829303    2.27793835400141
H           0.78931322740901    1.21525106861859    2.14315771527945
H          -0.60354169831599    0.98383484273826    1.53336903833135
O          -1.58883886112370   -1.20297048619149   -2.70599340724458
H          -0.67299341741458   -1.38856893411649   -2.93323150815516
H          -1.63708300561032   -0.21841475531895   -2.71676889252107
O           0.27932064692892   -1.81357135628304    1.68142729060504
H           0.19072927399724   -0.85643183905949    1.96230687013991
H           0.23880046508745   -2.33203359904629    2.48597664826103
O           2.39413574948961   -0.63741071770293    0.16251361496728
H           1.94350568430600   -1.24038114939897    0.76843825474428
H           1.71220440856929   -0.44399238483567   -0.51834377127941
N          -1.78253128897701   -1.35959511245451   -0.06548432283538
H          -1.68133399934201   -1.47650553978445   -1.11713659163248
H          -2.66153960241080   -1.73995582560089    0.26993272230231
H          -0.97222379428004   -1.74580985856352    0.46059045107046
