    26
        -50.46788073  Gyration_radius:  2.39865003604 Dipole_moment: 5.653
 S           0.00862256160826    1.73723439532869    0.49271073204080
O          -0.01040284439788    0.46853385606730    1.21243067871069
O           0.83974344164124    2.71859568767358    1.13589369630527
O           0.41894196116531    1.49419664039040   -0.91039735946515
O          -1.45702102302388    2.26820813293634    0.43667179532777
H          -2.01445334073114    1.52106184956296    0.11205588796832
H           1.52824437518125    0.48080538232320   -0.72487724753218
O           2.57042000010468    0.89531543153542    1.97126282234117
H           2.06292952212073    1.70221391506838    1.72011913361607
H           1.99649541368968    0.45355106936592    2.60401325040330
O          -2.92424340384145    0.17737088921524   -0.32944009849113
H          -3.81242230557185    0.29467314788712    0.01161313218131
H          -2.50876230261791   -0.55980830155309    0.20697754921817
O           0.39384147821967   -2.28639361959059   -0.90036532423539
H           0.52586985607291   -3.02930694456658   -1.49063366924918
H          -0.13371899460964   -1.61030227836095   -1.41754771020697
O          -0.90979902396524   -0.41127580500888   -2.16729708019787
H          -1.80686704182148   -0.30073251188032   -1.82722965587561
H          -0.42574296899111    0.37569679742114   -1.83273798061016
O          -1.59108997665572   -1.59916704554139    1.03579742254025
H          -1.03765907707930   -2.14724983194716    0.46386628201355
H          -0.99593627695018   -0.85958319441144    1.29066464763487
N           2.19290643100139   -0.28777674175903   -0.37208257588597
H           3.02589253423306   -0.35831389803444   -0.94736070197982
H           1.63960930849332   -1.16868695175311   -0.38922115870495
H           2.42460168672308    0.03113988961960    0.61511355213063
