    26
        -50.45373391  Gyration_radius:  2.43892969591 Dipole_moment: 5.450
 S          -0.37463445673985    0.84401300355864   -1.78534617693387
O          -1.40210764538389    0.45706039925752   -0.82795074135217
O          -0.63200798975883    2.07885739864459   -2.44243430875451
O           0.97533997447712    0.93399244575425   -1.01880987577328
O          -0.14347751867948   -0.29892315036345   -2.74591361350597
H           0.08845592058213   -1.17850814174008   -2.18387942086459
H           0.98028316109236    1.87494764391676   -0.62276650683739
O           0.35798059384851   -2.27759282930999   -1.32248494499493
H           1.10547722227493   -1.99074893095882   -0.71071858815647
H          -0.41451045874230   -2.36237021126446   -0.73885971080163
O          -1.69146905522980   -1.77749564159045    0.45922955840870
H          -1.63853046995545   -0.92501783191719   -0.03953250406130
H          -2.62017257902365   -2.01362560277991    0.48719232472706
O          -1.02810241203812    1.82801470231066    1.46072518061976
H          -1.36984414583051    1.38920291382471    0.66246350012747
H          -0.55069432468171    1.12920502309413    1.93595506750491
O           0.55656323704694    3.24428968155442   -0.10947709830009
H          -0.00620251816714    3.49363611433333   -0.85191270966984
H          -0.04006847845409    2.93074064490308    0.61540206773080
O          -0.08478233454951   -0.66159918296879    2.40648024056966
H          -0.38478744504927   -0.90683828924765    3.28338506539345
H          -0.65621530812566   -1.13368183925998    1.77190942794608
N           2.11044873007508   -1.33886586790928    0.41480591511682
H           1.58580036612433   -1.15177795375351    1.26391458598260
H           2.27554955167127   -0.44393942329290   -0.03192147411472
H           3.00170837324366   -1.74297508479007    0.67054472000226
