    26
        -50.45373398  Gyration_radius:  2.43885950769 Dipole_moment: 5.449
 S          -0.29960453057114   -0.05185483742715   -1.98680605294695
O           0.08303674310606   -1.20572309562287   -1.18406206694008
O          -1.25591725281601   -0.34275333463335   -2.99855965009888
O          -0.87331238794437    1.02500567698930   -1.02277013016384
O           0.94882942743951    0.60632936843970   -2.52597719187577
H           1.59698507091684    0.83642990904814   -1.70722254055680
H          -1.85512265772913    0.76829014359047   -0.91053227747089
O          -1.82658156626392   -1.66164675953655    0.66050488869636
H          -1.38617058717869   -1.20633265808539    1.39590825291098
H          -1.14895721931809   -1.71058533014549   -0.03592481301995
O           0.08992368513745   -0.57329710432679    2.42790613629117
H           0.18838949104948   -1.03831753005152    3.26043381625455
H           0.81449760816668   -0.87683045383590    1.84918752466103
O          -3.16986625590158    0.00100023134151   -0.89282205441610
H          -3.10473386344091   -0.39013903935331   -1.77194791372718
H          -2.90265172013257   -0.69653109646515   -0.24337193702651
O           2.37484827986601    1.06463454937547   -0.53877763114660
H           2.49849275072240    0.19636666078688   -0.11994194206000
H           1.79016673742090    1.57366006397533    0.10481493539482
O           1.96510744437271   -1.42189181068801    0.58907758349412
H           2.39702181199564   -2.27272067607929    0.49645008931809
H           1.26211591199583   -1.39230893308085   -0.10610973845108
N           0.68224837686606    2.13616596788047    1.18117672650916
H           0.79956354589782    2.98942036755902    1.71150014602467
H           0.43035227290974    1.39014693130598    1.82243980199405
H          -0.09866113654489    2.25348278909726    0.54542603833220
