    26
        -50.44326766  Gyration_radius:  2.7086206888 Dipole_moment: 5.210
 S           0.40919144507204   -2.51226408840457    0.02349035980421
O          -0.84947276514612   -1.79863279137472   -0.04416206398824
O           0.55736146184939   -3.58811673337638   -0.89309280141670
O           1.55641916126518   -1.48322625467465   -0.17198805875963
O           0.64550677663620   -2.96650556501451    1.47551504532970
H           0.40220077526479   -2.15992847835973    2.02590944476519
H           1.59367246750256   -1.27779970045779   -1.18613219859305
O          -0.82205878416200    3.10739265644019    1.75660646076707
H          -1.44784273726882    2.92525937269814    1.01720280161622
H          -1.27241446109342    2.82509790783719    2.55491561671792
O          -2.35764711643628    2.34867937151189   -0.29502434524100
H          -1.76075073473774    1.66255662424551   -0.67577371891614
H          -2.56657568377440    2.95058820891137   -1.01019003745077
O          -0.51982454151109    0.59579576412363   -1.16678178317549
H           0.16880377177170    0.87676499423162   -0.53972271371215
H          -0.79298462106095   -0.28188309561662   -0.83562906297500
O           0.99572524826215    1.33284638281430    1.04306147498626
H           0.39245943637241    2.06419922759530    1.33752333391411
H           1.89507151730938    1.63024538227620    1.18044336329422
O          -0.22176813425021   -0.71744045491508    2.36101090891245
H          -0.92109915449296   -0.86547334231014    1.70907594622843
H           0.34617421768944   -0.02615496276727    1.96367947756007
N           1.25626813669705   -1.15991063725341   -2.68302508948157
H           0.53587729275788   -0.44402111591288   -2.70097248769071
H           0.83441577585738   -2.06600807174512   -2.84570830167920
H           1.94329121982912   -0.97206061028324   -3.40023159061997
