    26
        -50.45108764  Gyration_radius:  2.46643728674 Dipole_moment: 8.239
 S           1.39912317609109    1.02809864081510   -1.45236601333080
O           1.18478988095216    1.76836360843089   -0.17980340880147
O           2.64422094169667    1.33634779643442   -2.06482296168490
O           1.24450174593810   -0.42465487835349   -1.14947295039254
O           0.24184969065440    1.39497628086436   -2.40237593175410
H          -0.61905984779007    1.07175686824386   -1.99120750528822
H           1.57458956831572   -0.59177329531446    0.25755470315182
O          -1.77720623809555   -1.68949481301678    0.05523206734038
H          -1.13097703395141   -2.23674541730643   -0.43380859988403
H          -1.34707625210377   -1.42742280937647    0.87918917983506
O          -1.91619532614174    0.64598673291566   -1.22553793822826
H          -1.92543617217726   -0.27365638596411   -0.86637997090624
H          -1.91460465777268    1.21816611848178   -0.44523975016461
O          -0.73992956896544   -0.34046803691093    2.37704813022266
H          -1.37965135871719   -0.45788848252795    3.08054337850081
H          -0.94820908428122    0.51672784302702    1.94218065794457
O          -1.05512817504465    1.97557651078735    1.05373220033626
H          -1.14849166338167    2.88307346398675    1.34603576483951
H          -0.20231467217630    1.94148769715744    0.53043431466799
O           0.17368734071292   -2.84697880583852   -1.42565393731917
H           0.64463103336684   -1.99141560920303   -1.42970008841137
H          -0.07935096618384   -3.01396857964747   -2.33504761433614
N           1.75580485286498   -0.24267870803612    1.28538975693883
H           0.95262532057187   -0.47421954153109    1.88884291512679
H           1.72649907872217    0.77885055032300    1.03395172888571
H           2.64130840691291   -0.54804675843527    1.67128184269189
