    26
        -50.46135645  Gyration_radius:  2.48817149552 Dipole_moment: 3.154
 S          -0.01759259546851   -0.61891988174150   -0.82115118032235
O           1.08127643266382   -0.58406072816285    0.13706270820484
O          -1.13767487841844   -1.38563519163716   -0.28862953534907
O          -0.44354092748775    0.75334261445881   -1.15615683025673
O           0.44954117561376   -1.29779981638321   -2.11197204053611
H           0.89514498643597   -0.55011532246036   -2.63436859748012
H          -1.12680020620831    1.39306757698543   -0.05658646444445
O          -3.27831251813634   -0.25598175775484    0.79882429725087
H          -3.25837632666061   -0.74148906715154    1.63086496410347
H          -2.67698829784732   -0.75168120156526    0.20222053040636
O           0.05471132864554    0.45665097725004    2.29926946250136
H          -0.44463793793506   -0.33011345244794    2.60166378461218
H           0.61014319227978    0.11087136758900    1.55801348892626
O          -1.32384195099951   -1.84885702072294    2.30985552609569
H          -1.20513956361176   -1.80871893290572    1.33366374951305
H          -0.91427597185580   -2.66635941375830    2.59547566598697
O          -1.59323474548415    1.64684560488942    0.85149338480887
H          -0.90545640270585    1.26366424460429    1.56983704093187
H          -2.40380453329039    1.01310597901131    0.88134137181052
O           1.44881096493067    0.80784900802324   -3.10764067056283
H           0.72563966190188    1.29405515395811   -2.69010995832613
H           2.22597083153263    0.91391475337349   -2.49594502072924
N           3.20625340632963    0.85416834871345   -1.10031141543814
H           2.55205929118984    0.30768305445891   -0.53799761417126
H           3.41680965104197    1.70300942490047   -0.59064464941017
H           4.06331592358427    0.32150368864671   -1.17807199812332
