    26
        -50.46815424  Gyration_radius:  2.47601953285 Dipole_moment: 5.895
 S          -0.68858210597871   -0.81161300283993    0.39289523483085
O          -0.46583227602792   -0.88868112542688   -1.04480415399014
O          -1.49472209873690   -2.05002061029354    0.83836761018090
O           0.56307881507734   -0.77546178352290    1.13790255906588
O          -1.51295266291644    0.35853678192668    0.72383535671309
O           1.92973962324172   -2.98945722757978    0.64784561199280
H           2.16113151704981   -3.37624322359784    1.49376267800074
H           1.51930266474759   -2.12059962513388    0.84716851963394
O           0.70734967931606    1.23437078012705   -2.07270724520507
H          -0.46175458701663    1.94916590815064   -1.59029012331035
H           0.36558596543010    0.32874494979909   -1.90071847452487
O          -0.37215471897610    2.58740475954851    1.65531491438922
H          -0.25536897492725    2.65227484034755    2.60408417806412
H          -0.78996762402156    1.71538842039437    1.49081000087977
O          -0.24754581017475   -3.56146509637377   -0.80022070163857
H           0.63077936506506   -3.58758749308447   -0.36472090242439
H          -1.11346473955839   -2.78238309213761    0.26678445136319
H          -0.22640493883213   -2.77173713145959   -1.36119156715605
O           1.79609153997646    1.45795366658933    0.30974490341077
H           1.33858013792928    1.38555128478438   -1.32445186898594
H           1.24358078823196    2.08521053243611    0.80091686715709
H           1.51926650392766    0.58118588716865    0.63854731142171
N          -1.34967390478045    2.29828734262197   -1.01154962380242
H          -1.58281255023306    1.46485636841017   -0.39302304916503
H          -2.13116509910003    2.56072497621835   -1.60166789679669
H          -1.08208451870781    3.05559291293724   -0.38263459010292
