    26
        -50.44213327  Gyration_radius:  2.59744963461 Dipole_moment: 4.739
 S           1.14733301481020    1.44901646159605   -1.50134248816024
O          -0.24004985818376    1.08994609874612   -1.30545587332045
O           1.60870174024444    1.56031194807558   -2.83282895995077
O           1.38172686228502    2.79238940450417   -0.73830975211389
O           2.04019010205633    0.44211935112591   -0.75359549285302
H           1.74570987068551    0.29967263287821    0.20902664898900
H           0.74390137447970    2.84247340968464    0.01058033270935
O           1.29920804838312    0.17186306728060    1.66670131950713
H           2.02694371655162   -0.15738456833973    2.19678623583000
O          -2.48398341705208    0.42536750170755    2.02332821662435
H          -1.97097642674453    1.20301226308039    1.74724192698054
H          -2.92744995675455    0.65718996621380    2.84023483058438
O          -0.47866539725360    2.15100907532297    1.07426096268059
H          -0.68320025564788    1.69758404192875    0.23132145096664
H           0.13868910381852    1.56409704281437    1.54209587112366
O           0.34213862273838   -1.03299335551798   -2.91724883719940
H          -0.14093411386290   -0.31555964168360   -2.48830431889492
H           1.06123748379706   -0.60277677417771   -3.38631170811260
O          -0.55272095098177   -1.52781616687183    1.73458210617789
H           0.56268027563112   -0.56195321875738    1.70095860267864
H          -1.35329594749789   -0.97850893061788    1.81094398707911
H          -0.59650404943033   -1.97153456967521    0.84033389612474
N          -0.64592108733212   -2.68515529439797   -0.66958361511921
H          -0.28866123530377   -3.63291885056559   -0.67901772064702
H          -0.12818763346440   -2.15925119742283   -1.37072073040066
H          -1.60790988597168   -2.72019968691575   -0.98567692125509
