    26
        -50.44835623  Gyration_radius:  2.64696078487 Dipole_moment: 5.195
 S           1.37140761579010    0.64059943364464   -0.10618477245700
O           1.18300921262440    0.47176401351571   -1.52514692555490
O           0.42058954929427    1.47562383398932    0.55407162660560
O           1.40121432153345   -0.76083008373360    0.55447351275140
O           2.79124278970932    1.14107395675162    0.17143250797583
H           3.38304813826271    0.59514603962338   -0.46815255283706
H           0.49215770282424   -1.22151144948282    0.50656972627482
O          -0.85227893063152   -1.92408524284191    0.41722568546109
H          -0.80279806762691   -2.76803358388217    0.87014139238954
O          -3.25709474090912    0.98737538058484   -0.42394389275460
H          -4.08003441491976    0.83678139631521   -0.89128910343286
H          -2.54683597797063    0.63781354594603   -1.00735747757180
O          -1.39869160457400   -0.32650474224573   -1.85516980197926
H          -1.30880699206883   -1.09102562091724   -1.27212908729319
H          -0.51627131670034    0.07723475110630   -1.88606750297438
O          -0.96561300136172    1.33429101785394    2.84475101771790
H          -0.38752227659902    1.40494632942435    2.06168890162917
H          -1.43679566144874    2.16871524479530    2.89110259031733
O          -2.53488629077960   -0.51430384907440    1.68771458966331
H          -2.00007578521856    0.08996897267070    2.24690496263760
H          -2.90680160887712    0.06114978926573    0.98381840500212
H          -1.53993498579943   -1.36557872605681    0.94625456081899
N           3.86774610037017   -0.33789921897344   -1.61748344529711
H           4.59332966975956   -0.01867212665509   -2.24530619168926
H           2.96892600570772   -0.30166658900091   -2.09156686378384
H           4.06177056961056   -1.29237244262157   -1.34635185161536
