    26
        -50.47045227  Gyration_radius:  2.53843254744 Dipole_moment: 4.648
 S           0.88353480215167   -0.10452142339686   -0.74048716613456
O           0.34481707353872    0.69115460685977   -1.83303262352755
O           1.86428089887526   -1.15183987329975   -1.31903308143648
O           1.58567977410829    0.69155475268185    0.24388413090820
O          -0.20507916718554   -0.86535865056450   -0.08030365510266
O          -1.33429420246199   -2.49907705504312   -1.84737201057629
H          -0.98672847826158   -1.89549765872763   -1.15706578269020
H          -1.18108676810198   -3.39026356487287   -1.52854947499898
O           1.21245993824075   -0.78665399444661    2.39557008192901
H           1.52355149870237   -0.21191361231167    1.66271849250393
H           0.70452891874360   -1.47246875717209    1.95314110203022
O          -0.43889452991809    0.93279747682159    3.50341544805921
H           0.10201980113334    1.64230016010318    3.85403046981548
H           0.19723586653835    0.22077898703955    3.22462693848853
O          -0.04418159009488    2.83710379492537   -0.37573294490822
H           0.04344120066102    2.19220965976866   -1.11314632464645
H           0.81596249528570    2.79045480726438    0.05677076418182
O           0.52653406108011   -1.43613846334965   -3.48607860684164
H          -0.23949495128368   -1.93036789830187   -3.12783563380585
H           0.30866708073946   -0.50147321533308   -3.35068880765592
H           1.49032984848289   -1.38907549205994   -2.22258996743394
N          -1.46427059424048    1.13547945913719    1.06479066156348
H          -1.00488360412543    1.94119742586383    0.54357165888073
H          -1.07052389826043    0.25754019442808    0.62056375164272
H          -1.15858114442552    1.13885003574958    2.07859649540172
H          -2.47502431993733    1.16322828820078    0.98023606435806
