    26
        -50.44213346  Gyration_radius:  2.59762419664 Dipole_moment: 4.741
 S           1.66780492384982    1.67204973797223   -0.30491704180868
O           0.25482307603666    1.58749170305222   -0.60229481111263
O           2.50278303034731    2.26950357775962   -1.27659306290803
O           1.80175385683397    2.42850587791536    1.05576488143861
O           2.20396872584436    0.26249286453956    0.00495366678034
H           1.63077860246577   -0.23164045571374    0.68339242689339
H           0.98293326868597    2.27474210049020    1.58126722504760
O           0.77025177769319   -0.90492447013738    1.75542362102323
H           1.27703581633456   -1.59565299278009    2.18558582916978
O          -0.55622557372706    1.47295095822450    1.88256688229980
H          -0.55194290695629    1.51235876869420    0.90459978022944
H          -0.16199510239242    0.61427570798388    2.10984906226767
O           1.06685704748761    0.36189498527216   -2.90063197920784
H           1.92910192910001    0.78340209996437   -2.93397128697504
H           0.55287277132043    0.89319871630632   -2.27966562248488
O          -2.91018777365548    0.01201861007849    1.40471936493143
H          -2.26610438868606    0.69013259164359    1.66805099642343
H          -3.54744660544565   -0.06146460935469    2.11621847842111
O          -1.17917561128223   -1.97749911466069    0.58312409809612
H          -1.00396877486989   -1.94452553746793   -0.39998464572959
H          -0.01271182025818   -1.38428598359559    1.26672838037104
H          -1.90928624752656   -1.35657050943137    0.75577122965115
N          -0.67901880418341   -1.86661953685849   -2.03752094446076
H           0.06342774961181   -1.20665928261263   -2.25995822285717
H          -1.50767917921334   -1.54552759504437   -2.52409179173256
H          -0.41864980749553   -2.75964820220444   -2.43838647372452
