    26
        -50.47220519  Gyration_radius:  2.41997218661 Dipole_moment: 2.804
 S           1.63651342605679    0.40816896983823    0.34040959775124
O           2.39698479474399   -0.81110388201331    0.46018862479587
O           1.16763723528172    0.63408816017369   -1.02331724816721
O           0.56235829830461    0.52245152755323    1.30928135049968
O           2.63438846881032    1.59856679964952    0.66994618758408
H           3.46595701211496    1.22360866324711    0.40199247563552
H          -0.62833166473855   -0.56838235781078    1.52494875426083
O          -1.31266931960139   -1.27473921998760    1.58371476145438
H          -1.67055334992181   -1.22705812536992    2.47151721441444
O          -1.24605901498531    1.88871297298787   -0.97299425521723
H          -0.35186022258407    1.52905064090319   -1.10198743123109
H          -1.14812237338775    2.50720464929127   -0.23237525254801
O          -0.00751992742483    3.13438368510096    1.16975703336909
H           0.19179058379626    2.20145773868686    1.36341378906909
H           0.84067091774664    3.55278136332312    1.01331035604393
O           0.60500506570921   -2.78767246611861    0.23740277055898
H          -0.08018042491130   -2.51922512630617    0.87029266312266
H           1.36849020928438   -2.19618568565535    0.39900005508161
O          -2.47201018094108   -0.46707693227379   -0.79765546657379
H          -1.27666263796208   -1.10439697286823   -1.52497371597145
H          -2.29283950025655   -0.74806284334340    0.11594452208914
H          -2.20326063681081    0.48135128512501   -0.84861171746052
N          -0.29093534172300   -1.43315423476397   -1.82678783341866
H          -0.27251667240232   -1.77454661472041   -2.78070003155771
H           0.04058482353039   -2.15925346436426   -1.12559184394647
H           0.34314045227788   -0.61096854029971   -1.69612537960909
