    26
        -50.45090191  Gyration_radius:  2.44469580618 Dipole_moment: 8.455
 S           1.56106312610521    1.61252228763022   -0.79882667349320
O           0.65092061343637    0.90246658451649   -1.71249950183670
O           1.44462200793498    3.03283127637711   -0.85088561841333
O           1.06344304450922    1.14530090892546    0.66758646136899
O           2.90066372129969    1.03893189748633   -0.86032459717891
H           2.50418029974285   -0.41354836973957   -0.84327934366106
H           0.13825313461371    1.45939592861969    0.76318184675540
O          -1.52335856613617    1.75606136867567    0.83839327689286
H          -1.57997170798385    2.71202755587348    0.79519401160375
O          -1.56716326281518   -0.76774553966564    1.90742360703005
H          -1.54427652672143    0.17052842646392    1.64473676021491
H          -2.23810130074771   -0.84460729651083    2.58751361036107
O          -1.27771875046587   -1.83574775493486   -0.64366819808357
H          -1.80550142710752   -2.63043545628787   -0.73008331390639
H          -1.36503867245887   -1.53899431219357    0.27774697301100
O           1.17006275747616   -1.37272946759300    1.70900012707057
H           1.39962319068002   -0.43062348770185    1.67131572867054
H           0.22127579003470   -1.37982632920422    1.90113822922377
O          -1.93793687468618    0.75138010131975   -1.49710196296200
H          -1.78583047968020    1.41715712818737   -0.07719030224788
H          -1.01592186504500    0.95555236207798   -1.77364791179251
H          -1.91679147243218   -0.20971963308379   -1.36628486520262
N           1.80776131580256   -1.24575899393337   -0.89474581266516
H           1.53359965083707   -1.51764491917967    0.08157137975872
H           2.14294168062665   -2.03115475261367   -1.44084077104022
H           1.01920055316108   -0.73561951350456   -1.35542311950765
