    26
        -50.46081174  Gyration_radius:  2.41725416912 Dipole_moment: 6.002
 S          -0.21389790944475   -1.55966974242813   -0.93806705272718
O           1.19175698409998   -1.50565527556227   -1.26864304391058
O          -0.45367443278956   -2.02789674371649    0.42997504122078
O          -0.93006929144097   -0.32685279812085   -1.16903728283931
O          -0.83198187783308   -2.65603877919707   -1.90036207386067
H          -0.05215493078626   -3.06798539362742   -2.25838217985329
H          -1.68320541884729    1.39847151590173   -1.47018813894112
O          -1.48474517498712    2.34552767926465   -1.46808387010925
H          -0.70676136420763    2.41329675331016   -2.04516833969850
O           0.87194279963966    1.33422740528066   -2.46620347856095
H           0.35562771026014    0.58527635800597   -2.13033875985769
H           1.69426775182111    1.32526980826801   -1.97109695418328
O           1.79843323805598    0.49563505839222    0.37217123238604
H           1.80329873076107    0.03552488811739    1.22550241691628
H           1.67643358580214   -0.20954673356833   -0.29197918069333
O           1.19534520133199   -1.33182490176618    2.40217728544458
H           0.66163487117245   -1.72867802145213    1.68198826585046
H           1.87595888575555   -1.97085390878343    2.61737260743668
O          -0.26113007616537    2.12556422183393    0.84342682988679
H          -0.89701677523615    1.01005000386058    1.40234212885923
H           0.59191739941478    1.70896079909262    0.58164938781384
H          -0.74089797444877    2.33416845953174   -0.00509120806690
N          -1.29981773006096    0.04736415752133    1.86220194317830
H          -1.13042369787826   -0.73605322072058    1.18416617458070
H          -2.28559637046477    0.12304127637948    2.08766300887814
H          -0.74524413327836   -0.16132285596100    2.69200523105039
