    26
        -50.45146368  Gyration_radius:  2.53122157163 Dipole_moment: 7.054
 S           1.75394605984699    0.60267988099215    0.77560727484382
O           0.65666506007160    1.11674509346870   -0.02457737424468
O           1.88526608408569    1.19593090007055    2.06174782154636
O           1.56457490754610   -0.93742647332760    0.89596319722463
O           3.04063286519374    0.68765711474458   -0.02256842856332
H           2.82641280913471    0.17144199873877   -0.94038537361548
H           0.59851420213452   -1.21935883352756    0.98599893415956
O          -0.86128963284731   -1.73031905152830    1.01678344986662
H          -0.96671749589694   -2.36419104673864    1.72792382073871
O          -2.96634168225006    0.42768535884726   -1.22221837441671
H          -3.63610995746608   -0.08467279912722   -1.67668216902618
H          -2.10072443803366    0.09623254317143   -1.52498581722034
O          -0.44825126025494   -0.68628079305736   -1.57134828648272
H          -0.63963615421152   -1.35761286202082   -0.90306346448332
H          -0.10962887923329    0.08044788799959   -1.05781820403426
O          -0.76362234925124    2.17604076118043    2.01388561353486
H          -0.36088296940121    2.04752016163626    1.14097769241721
H          -0.02880740243401    2.06609137351140    2.62597924422579
O          -2.48580280061546    0.17660454167024    1.46827852032932
H          -2.79294890010497    0.40540539289593    0.57041056115605
H          -1.51692111634699   -0.96962921765611    1.22083505224879
H          -1.97234929173725    0.95317698397575    1.77732521173317
N           2.41135409592336   -0.57914357861235   -2.12789901170453
H           1.39751102448624   -0.71005023010922   -2.10013708839567
H           2.86102469470806   -1.48513175318014   -2.13661662758102
H           2.65413252691081   -0.07984333398828   -2.97341618425629
