    26
        -50.47220509  Gyration_radius:  2.41980549831 Dipole_moment: 2.799
 S           1.70663446507836    0.06864487107596   -0.20314393324879
O           2.31300833791436   -0.89048592718215    0.68661870110374
O           0.94235787635263   -0.57347771655916   -1.26813808483109
O           0.93386417662276    1.08935408617183    0.47977615738778
O           2.89604247288602    0.84266951392575   -0.91537807943319
H           3.57568593141981    0.17786067504108   -0.91912644754429
H          -0.28959020822844    0.80866476239871    1.51828419715590
O          -1.01989382616923    0.54889227070177    2.12644942463164
H          -1.13222018199319    1.27925120601587    2.73677147697850
O           0.68254279515009    2.94621045162425   -1.43225120867876
H           0.80515470501426    2.38156281955314   -0.64883583488126
H           1.51055990554786    2.90358395850823   -1.91342073032099
O          -1.20103384820063    0.97243919042748   -1.91617885283198
H          -0.84153514235570    1.87108798929730   -1.85458745226092
H          -0.42168527262728    0.39774856533377   -1.82753836015837
O           0.28970106684381   -1.91423119429135    2.10945278834016
H          -0.17341456173631   -1.11834718643703    2.41625836750457
H           1.13734393823296   -1.60420127528411    1.72954547674587
O          -2.63107414475303   -0.19545969317091    0.00093234003815
H          -2.26417708000425    0.18149941450892    0.81886671161525
H          -2.26604841688309    0.34844511853347   -0.73741480648644
H          -1.74873552600047   -1.44544424816823   -0.15051962847125
N          -0.92129968860120   -2.14010506134727   -0.21028577490823
H          -1.18863209732513   -3.02467272036714   -0.62613541637859
H          -0.51726448073178   -2.25244535989256    0.76592504486845
H          -0.17629119545012   -1.65904453041272   -0.76592607594101
