    26
        -50.46081163  Gyration_radius:  2.41725190236 Dipole_moment: 6.001
 S           1.02796390823080    1.49294684215473    0.26998439443122
O           1.50946454918659    1.35359659230887   -1.08538737324837
O          -0.31686046765945    2.07209302799400    0.33394714469446
O           1.07837509195721    0.27822847743704    1.04964787595710
O           1.99886977661671    2.53980696298724    0.95664695116772
H           2.47691834278792    2.88596144840866    0.20993078703868
H           1.15413804963179   -1.43373932070468    1.89165883200818
O           1.09976848782657   -2.38476927989489    1.72223807438270
H           1.75358722969972   -2.52504813028142    1.01797091100946
O          -2.13562778128622    1.45644808688976   -1.51161554117644
H          -2.21935898350329    2.08027440627645   -2.23392295613267
H          -1.45199295606141    1.82019051744222   -0.91046903516175
O          -0.20376516667156   -0.54380136969209   -1.81212548063555
H           0.49584732425437    0.11439460443286   -1.63676426082529
H          -1.01162977401027   -0.02152439106139   -1.93244634270669
O           2.43638866209573   -1.54967591359810   -0.53225028701882
H           2.03840603672993   -1.54010603556671   -1.40573341137686
H           2.10448069261729   -0.75631105325702   -0.08421218675502
O          -1.03413330521927   -2.04285264275197    0.23280580907431
H          -0.64519899226513   -1.68371513351786   -0.59767738351811
H          -0.26461668260520   -2.29415142227787    0.81442881326584
H          -1.57177865966631   -0.86269822583440    0.76121212054064
N          -1.99706999306361    0.14798754328135    1.07444003767803
H          -1.24389874712543    0.87041859989873    0.96035663057784
H          -2.34023140749781    0.13148757718858    2.02852877195770
H          -2.73804523509494    0.39455822203337    0.41880712483309
