    26
        -50.46979174  Gyration_radius:  2.4165009812 Dipole_moment: 5.552
 S           0.79827612254904    1.42449470407154   -0.40729850500732
O          -0.42885686242983    1.46197071170063    0.36828103226245
O           1.97820919270995    1.43573235105639    0.43217825955129
O           0.80325215001251    0.27109785323526   -1.32180445800638
O           0.84752548377973    2.70365600663650   -1.30587521044830
H           0.12702588476257    2.56614354454435   -1.94449979289338
H           0.95871023458358   -1.17721472599345   -0.63910231682543
O           1.07139905363656   -2.04237949546678   -0.16657457206188
H           1.46086263227240   -2.64440959310279   -0.80237187089093
O          -2.35134373768392    0.04753007999589   -0.85372173396363
H          -2.35526602289796    0.37026909547543   -1.75829217724995
H          -1.72648953088060    0.62744303515258   -0.37868814448782
O          -0.83426739295026    1.41993138330721   -2.97882996068074
H          -0.55066011875781    1.36116900873732   -3.89328937144899
H          -0.27403433871737    0.79480197419710   -2.46667821150494
O          -0.86666751573384   -0.08808266072227    2.53524793349769
H           0.57794943922361   -0.39988133534083    2.40851970994063
H          -0.89668727707995    0.65192281027245    1.90055160071962
O          -1.59135234872065   -1.97334172538471    0.82706970160504
H          -1.28739667079335   -0.84347359624380    2.04826972811595
H          -2.04273945217268   -1.39505631712470    0.18708308554267
H          -0.72850124180261   -2.16991618019376    0.43603404008212
N           1.60752609157853   -0.57618434917837    2.06109333943570
H           1.57581170938931   -1.36394141536363    1.39305251532740
H           2.25710290442929   -0.74477050250583    2.82090598889230
H           1.87061161154443    0.28248930815647    1.49873938049729
