    26
        -50.46837079  Gyration_radius:  2.48019927984 Dipole_moment: 2.829
 S           1.21954730923215   -1.37256380955276    1.30051344859615
O           1.93236413212462   -0.12486544612591    1.15096868581590
O          -0.22206220268253   -1.15386555065712    1.42993371279249
O           1.56079071042611   -2.35511914830723    0.29274377919426
O           1.65558470125763   -2.00594374110765    2.69106687916402
H           2.49303100234741   -2.39457024356564    2.46281636198005
H           1.18624215461565   -1.64553927819239   -1.09250347894008
O           0.87096884069652   -1.22309860108542   -1.93104404201700
H           1.44325736520671   -1.55265588115265   -2.62608695749187
O          -2.38167846483091    0.99705345902019   -0.94763360111369
H          -2.16187104655575    0.01779719932878   -0.94504730342301
H          -3.27632649834578    1.07304938353262   -1.27955962099899
O          -1.63441463698306   -1.48772863456335   -0.83634380872274
H          -1.21890936710095   -1.53727816332689    0.04604056526358
H          -0.88740328123245   -1.54166043341698   -1.45368815184246
O           1.23687307307001    2.34091107707115    0.44855818868434
H          -0.06947218569683    1.89900047442297    1.04022598386224
H           1.73377083057064    1.54312918555164    0.71812135379051
O           0.27294713702602    1.48311946714297   -1.88510497387012
H           1.03282820208759    2.19396936432206   -0.50426371934431
H           0.56262920775745    0.55636876737161   -1.93822455059624
H          -0.68124623377513    1.45093837195232   -1.73294002283472
N          -0.97138942789586    1.36251890100528    1.34801822627821
H          -1.64758451111520    1.37905682870672    0.56067013291677
H          -1.37488081096352    1.74198511851694    2.19638983278555
H          -0.67359600924724    0.35599136311452    1.48637308003849
