    26
        -50.46979179  Gyration_radius:  2.41651062326 Dipole_moment: 5.549
 S           1.33189324247880    0.68629254147999   -0.76707273710096
O           0.33713101587899    1.52623180590511   -0.12385496140570
O           2.44884676582424    0.39194726360425    0.10625392340100
O           0.71778781537320   -0.54735377963449   -1.28448400856744
O           1.89370981535317    1.45632533621736   -2.00701662562953
H           1.13971020293061    1.48889934422247   -2.62068804714105
H           0.23734508886726   -1.61863642210265   -0.18459085281147
O          -0.02674489744992   -2.24858791169374    0.53503877785631
H          -0.02491676519401   -3.12130374878164    0.13916152724358
O          -0.33065543125975    0.68056721806460   -3.31899059565291
H          -0.18799929841848    0.22440082343955   -4.15071008171845
H          -0.08555994514917    0.05132385416062   -2.60417306016437
O          -2.12090603286953    0.88779158289158   -0.98380354046995
H          -2.05339988820047    0.88948429828277   -1.94180763886148
H          -1.25903908542401    1.21812617037800   -0.66676927943089
O          -0.58106708816837    1.09224277576738    2.37781091082744
H          -0.31783182214407    1.53091545137410    1.54735509780518
H           0.53330187878817    0.11628898846563    2.44893594971453
O          -2.24976088922436   -0.64243937547533    1.28107406312074
H          -2.43343751360483   -0.14203963759821    0.46658085359762
H          -1.61611229706702   -1.32815891807419    1.02729811871135
H          -1.34687322593199    0.51743827466906    2.11702781185340
N           1.32653714228262   -0.61839901495924    2.24143341862330
H           1.90961741821387   -0.19742107820209    1.46336883842940
H           0.87225413247584   -1.45734207524487    1.84454271699985
H           1.88616964161476   -0.83659375721322    3.05807944077513
