    26
        -50.45084381  Gyration_radius:  2.47624739177 Dipole_moment: 3.092
 S          -0.65237100253779    1.94055478526926   -0.70981745590000
O          -0.11179511343548    0.76946565403732   -1.37779520300742
O           0.09586954449625    3.13647161361542   -0.83836109534280
O          -2.09920130877321    2.14632051361200   -1.20883406568085
O          -0.80230978485497    1.61735540442962    0.78846101792295
H          -1.21318853201073    0.70245738772572    0.95472573323123
H          -2.48608428882041    1.23120800845228   -1.36357436310225
O          -1.84988645538046   -0.67998612652477    1.15885422333096
H          -2.25167601052789   -0.70946074543813    2.02920682707214
O          -2.58343076446870   -0.36653912214360   -1.44560199199592
H          -2.56189258151268   -0.66836357603279   -0.52098938905081
H          -1.66894422309650   -0.42592140457940   -1.75337887692285
O           2.18731654414468    1.42570706322250   -0.04364069282192
H           1.99252708758122    2.36737627405315   -0.00739694216346
H           1.52216027190414    1.06881174859996   -0.64798425248434
O           1.86323259236573   -0.06119011174400    2.20824444025986
H           1.96202499732650    0.52496552490598    1.43020327894700
H           2.74414307829684   -0.18404670329803    2.56469596045665
O           0.27118088148097   -2.04170486677365    1.30647848679026
H          -1.01320523243275   -1.28740307369689    1.21555695669772
H           0.61351959726223   -2.10638301958393    0.38187253092925
H           0.86048737513472   -1.39507743535909    1.74734903127829
N           1.20872160325768   -1.84918658127777   -1.22473143267231
H           2.21174073228252   -1.71081759954856   -1.23195810859312
H           0.78039948673924   -0.95285240522444   -1.43890350107581
H           0.98066150559538   -2.49176119671903   -1.97268113613171
