    26
        -50.45476405  Gyration_radius:  2.47367520752 Dipole_moment: 6.125
 S           1.88816662755896   -1.38341003002815    0.04272112653849
O           1.80793861607862   -0.63753068985332   -1.23299699325862
O           3.17445184761123   -1.91539166834695    0.32525815510012
O           1.36303677539281   -0.50505495534983    1.12259189123157
O           0.87220326526618   -2.56640267225998   -0.06104328788235
H          -0.02643923787980   -2.19573756952357   -0.20471266036674
H           1.44302484028839    0.94036058580362    0.63449853859914
O          -1.61580819627756   -1.70649442327329   -0.43302439289056
H          -2.22029768835633   -2.41487173585957   -0.20820858440150
O          -0.97943508030215    2.06907981653638   -0.99325770101342
H          -1.42911805497518    2.71619622073904   -1.53738015923067
H          -0.86066740059552    1.24991618806223   -1.56958884538584
O          -0.52897413472041   -0.08767933609127   -2.35304232872610
H          -1.09421122494019   -0.76236732253453   -1.94890543611492
H           0.38156317639777   -0.34505393343355   -2.08723571872049
O          -0.45636827622705    0.16261578441725    2.92141021161741
H          -0.53022168926329   -0.50566209475779    3.60389841842825
H           0.26273180580295   -0.13440767194470    2.32659165663736
O          -2.23586741244099    0.42197646096250    0.91895366480147
H          -1.67894348975097    0.39735458729162    1.72457427091574
H          -1.88313015956630    1.13926343786322    0.37089522047700
H          -1.88800549256867   -0.91219826233709    0.11766273093720
N           1.54671968500871    1.64891988642210   -0.16834269278758
H           2.25132721590250    2.35733779630119   -0.00169083912438
H           0.61547827989036    2.04456508863940   -0.41422908808069
H           1.82084537266415    0.92467650255434   -0.89539715730213
