    26
        -50.46979177  Gyration_radius:  2.41655927466 Dipole_moment: 5.548
 S          -1.46524286268956    0.33837276946064   -0.75589885007283
O          -0.26002204309687    0.13421744023499   -1.53979636437855
O          -2.23946450152787   -0.87708377073474   -0.61355329887297
O          -1.14206697507089    0.92351364688280    0.55557091870418
O          -2.36091664356889    1.38283146148250   -1.49951456029906
H          -1.85724156696480    2.21196618747613   -1.42876088410073
H          -0.38935864860881   -0.04224063835327    1.59912738587455
O           0.06036171715491   -0.68481091790506    2.20684465454201
H          -0.13149223378374   -0.38805371074549    3.09762852093565
O           1.71845620011072    1.70201559063761   -0.63619864911474
H           1.33294584359786    2.58032472084966   -0.58831980935430
H           1.03681380592692    1.14672702763461   -1.05990120648747
O           1.41687211135837   -1.94980398507103   -1.17352677209939
H           0.91813492043963   -1.21906058740282   -1.58425246901831
H           0.33113916316851   -2.46838720719268   -0.30636934212639
O          -0.76350645552877    3.28666696566220   -0.45367472573907
H          -1.20717640893112    3.98242611331252    0.03549286115620
H          -0.79326416055962    2.48052161908628    0.10866591852220
O           2.50347491063269   -0.51416079168792    0.76434990642828
H           1.77858476094012   -0.54345172717768    1.40451244000910
H           2.01153722010380   -1.50019502091230   -0.51849786190683
H           2.43417125198876    0.35462058007836    0.33084307490584
N          -0.53110583392899   -2.59801810411536    0.36571290470489
H          -1.31379497336133   -2.02410786275774   -0.05928332151999
H          -0.29185019594224   -2.14561087620087    1.26341935705124
H          -0.79598840170934   -3.56921890225686    0.48538017260844
