    26
        -50.45084377  Gyration_radius:  2.4763645417 Dipole_moment: 3.090
 S           1.12051864959691   -1.17707399336703   -1.43316741277852
O           0.59063910267345    0.17518091988920   -1.45658037600944
O           0.63592436737647   -2.05740120302254   -2.43155588025142
O           2.66094466355332   -1.08461924574054   -1.48915741216197
O           0.81982333672896   -1.79089861792731   -0.05301161357296
H           1.01879361367059   -1.15293185027438    0.71297865082237
H           2.92127174448732   -0.25933336482324   -0.97697887331279
O           1.34741384141177   -0.16216272892830    1.83963185498084
H           1.49847735729941   -0.65386735465815    2.64908188145417
O          -2.36015796475343   -1.19675457557715    1.16162237300157
H          -3.31126714100599   -1.28715690575867    1.23479130253347
H          -2.15600360747211   -1.21717490382665    0.20427210328854
O           2.77696633316562    1.08419526980302   -0.11541181282928
H           1.97773732807120    1.33239735841047   -0.59929476527320
H           2.46582963020169    0.79119649408840    0.75858273265685
O          -1.83933942864850   -1.08546683079833   -1.50369701494053
H          -1.10614764416835   -0.45799436643512   -1.56456367981606
H          -1.51108312634113   -1.87573674505988   -1.94379842459568
O          -0.93059141916178    0.90298305161861    2.06681832896949
H          -1.50167380440217    0.13361410240344    1.86288033507942
H           0.43789148136297    0.31587909632479    1.96742818607127
H          -1.02525918147498    1.50197183564735    1.28678321366855
N          -1.12942813938215    2.24197830129847   -0.27638462666275
H          -2.05966676860528    2.15617972526761   -0.66692355708716
H          -0.52127578948210    1.62847765681925   -0.81168070050009
H          -0.82033743476446    3.19451888463440   -0.42266482277877
