    26
        -50.46837082  Gyration_radius:  2.48016662244 Dipole_moment: 2.829
 S           1.65642030596923   -0.73647787521082    1.33242782531580
O           1.87575090053146   -1.24686554693595   -0.00125448918102
O           1.14931168420280    0.63635932046836    1.30413981938402
O           0.86725233418982   -1.62058996123111    2.16487538502585
O           3.07554552298177   -0.62537477244645    2.03862340731743
H           3.22414745633572   -1.52810995579559    2.29812144345343
H          -0.51768927569536   -1.77425815894318    1.37641373793095
O          -1.39500779297630   -1.78908040715465    0.91705777830655
H          -1.77964902013130   -2.64661269314352    1.10647824986814
O          -1.86046664583278    1.86672121916377   -0.78582369255142
H          -2.54644728105294    2.53442039197741   -0.78312929548386
H          -1.79457052063001    1.52339333077860    0.15498788117025
O          -1.51626611102753    0.87197244550119    1.58827111953051
H          -1.74589286690284   -0.06609760165157    1.49167380329696
H          -0.54320952872123    0.87228949896240    1.67116511918616
O           1.02249521467804   -0.55537745422432   -2.42013831245043
H           1.45556866630400   -1.00322125936695   -1.66652097085092
H           0.96749542001130    0.79488798236269   -1.76791740203060
O          -1.52484981883238   -0.82642296228599   -1.67922996080679
H           0.07221918799845   -0.80413718154031   -2.34149150118489
H          -1.47685443498962   -1.24757258465679   -0.80406883140579
H          -1.80716769975800    0.08381708142495   -1.51679966604032
N           0.83134728879855    1.64916392075567   -1.09877222046286
H           1.05279311700321    1.29121503993304   -0.12736996450231
H          -0.17168750032716    1.91645844949546   -1.10814186574553
H           1.42941138789199    2.42949974374037   -1.34357737711487
