    26
        -50.44647005  Gyration_radius:  2.48319357463 Dipole_moment: 5.860
 S           1.66724177192194    1.46659763685035   -0.84800198422703
O           0.31142216378320    1.93444304456413   -0.69758804658735
O           2.54835321660365    2.21806114415758   -1.65987815653744
O           2.27638931235828    1.25483956992634    0.55311218172285
O           1.59728411089077   -0.00568590925496   -1.39035514083666
H           0.65654425739069   -0.29361415184526   -1.57097207232613
H           1.48109727533786    1.10978796501451    1.16722641165800
O          -0.80498514121841   -0.85233873463979   -1.87288180693740
H          -0.88047617507964   -1.12292240894128   -2.78915706444595
O          -0.67914855354772   -1.48487300925343    0.84177082208866
H           0.24354772935431   -1.81430308704037    0.97653463448293
H          -0.78115227461715   -1.43471557992414   -0.12022413157076
O          -2.79759850678600    0.32687391205271    1.10346856523965
H          -2.18768709485666   -0.42601035016697    1.15090199078560
H          -3.62792087640236    0.03883928066311    1.48369762498715
O           0.13710476052550    0.89199534664238    1.87151920184226
H          -0.19804961097671    0.01101733414622    1.59232143648040
H          -0.41769711730061    1.53750613316748    1.41988855941487
O          -2.18896718876028    1.25610283097405   -1.40457270234006
H          -1.41039409446820   -0.04721071740432   -1.75579283384274
H          -2.56509990276654    1.05851941160008   -0.52723678561633
H          -1.38654495171145    1.77742104840394   -1.22922967348005
N           1.97960153518868   -1.88841031806991    0.95433534263391
H           2.20147733481002   -1.37448241235545    0.10646311446880
H           2.46217826642448   -2.77752693736272    0.91586603147691
H           2.36347975425072   -1.35991106198733    1.72878448130260
