    26
        -50.44647006  Gyration_radius:  2.48317919353 Dipole_moment: 5.860
 S           2.12732528658701    0.28110038843883    1.02230691025859
O           1.02270689668614    1.11510415987534    1.42724226513606
O           3.43561469816397    0.68411389290249    1.37746319717208
O           1.86061033775671   -1.16070749698334    1.50085515517938
O           2.04470867905086    0.11900439650200   -0.53770767322835
H           1.29883720257979    0.65699387573612   -0.93103304753175
H           0.85226960558495   -1.22280294142144    1.60155399932462
O           0.12796371032767    1.46355818065796   -1.65075340991944
H           0.48517803524313    2.06171332856077   -2.30884919266726
O          -2.82403382336237    0.88677343351302    0.62401700713162
H          -2.49965290150271    0.20893669843531    0.01045963237088
H          -3.76964885825005    0.95621379014087    0.48988450843613
O          -1.30857710532922   -0.83333668373779   -0.98323930205594
H          -0.68231407384163   -1.57756848939059   -1.16189242857318
H          -0.88327241785214   -0.05773197501151   -1.37812882932999
O          -0.67277751928765   -1.07508269489845    1.64596381925023
H          -0.98852261719114   -1.04146960770022    0.71556262984604
H          -0.76470826276200   -0.17802681322277    1.98546874528911
O          -0.82392993968093    2.74493318218030    0.35726222767996
H          -0.26724836888345    2.04048943879982   -0.91630994779547
H          -1.63232935379981    2.23726023001948    0.55454981089284
H          -0.14139786181640    2.38176913093753    0.94776366947242
N           0.75278362005034   -2.55723847137365   -1.13570034875713
H           0.77876819885502   -3.11906210639024   -0.29302494931884
H           1.48396640908586   -1.85738642548715   -1.04742271988361
H           0.98768041357923   -3.15755045108148   -1.91629175832948
