    26
        -50.45232615  Gyration_radius:  2.47427787709 Dipole_moment: 5.071
 S           1.15481924238698    1.16298547688703   -0.93041769288083
O           0.56410270888245    1.72011650826782    0.29056422081532
O           1.92329556267678   -0.02899324704826   -0.65869208767902
O           0.15696148017770    1.00655998000715   -1.96663070102202
O           2.17773063765877    2.25087187199759   -1.45777651431876
H           1.60721571421214    2.87181312557916   -1.89961867194108
H          -0.23516982594596   -0.51865754027268   -1.59681862219605
O          -0.42274918583011   -1.43340529165445   -1.27712152790076
H           0.43249742292331   -1.86772425252850   -1.29859259733124
O          -2.18079018468063    1.32357676512144    0.02122660331470
H          -1.26660690255608    1.63382552946755   -0.06535276634825
H          -2.45850937123722    0.99982394047496   -0.85397936449706
O          -3.03544946338473   -0.42062264167526   -1.95448836503122
H          -2.19997769777657   -0.89992747621524   -2.01006246322420
H          -3.62619637069313   -0.95782008473512   -1.42235205913148
O           0.33773656317798    0.21557536441633    2.30760070167638
H           0.45623740671303    0.92880883694571    1.58748280617033
H           1.20960361612709   -0.39327542743022    2.21559321617772
O          -1.53534672496807   -0.94235022626478    1.14086973522593
H          -0.48384242941962   -0.34416072298363    1.92459364302890
H          -1.97700962634933   -0.10002751662842    0.83945542232545
H          -1.13372399016474   -1.29497924741828    0.31898452839774
N           2.42551456182788   -1.12999163466581    1.81636219656651
H           3.28400191800948   -0.83475528228159    2.26193592732869
H           2.43720621110716   -0.80654312507688    0.84131726313382
H           2.38844863524582   -2.14072370561357    1.82591722937116
