    26
        -50.44647012  Gyration_radius:  2.48323610807 Dipole_moment: 5.861
 S          -1.29010793382529   -0.64220271453730   -1.89049958430846
O          -1.91256273481335   -0.56725094500615   -0.59178107649268
O          -1.96382396545252   -1.34525837741204   -2.91615113085303
O          -0.94347987472548    0.78662309070539   -2.35649958596422
O           0.13701708202417   -1.26689738913348   -1.69061542416379
H           0.30036208290156   -1.53133612764038   -0.73990162564583
H          -0.86788699935290    1.33139680884009   -1.50304996223585
O           0.66370442393965   -1.96994408923288    0.74834841868807
H           0.88200569811734   -2.90254607577555    0.78120824088977
O          -0.61578561084805    0.91006319510169    2.81774884824884
H           0.20773140809260    0.96136907315993    2.30754465111081
H          -0.41569908771096    1.21389469727547    3.70353711109048
O           1.42861609175635    0.70825486048830    0.91448228039896
H           1.32331132319128   -0.25452070704626    0.93299605996549
H           1.87358697123495    0.89233072088852    0.05071727293202
O          -0.78281460008881    1.92205925950234   -0.09124406568346
H           0.03758286864646    1.57144711683035    0.32166173695839
H          -1.51072899036142    1.46746928547868    0.34697770105294
O          -1.57510981228273   -1.49301211861908    1.90614172187078
H          -1.38613937664303   -0.65786075637892    2.37184773683258
H          -1.98621839340172   -1.23087035356577    1.06427490659937
H          -0.20316219256751   -1.85511692025202    1.26181589398147
N           2.15617535897366    0.99378912834250   -1.66129620620764
H           1.71246041531949    1.82122566678711   -2.04192999296164
H           1.63633437030652    0.19291784687423   -2.00856953523401
H           3.09463149760194    0.94397581432003   -2.03776439085335
