    26
        -50.44647003  Gyration_radius:  2.48294751274 Dipole_moment: 5.863
 S          -0.08281632991061   -1.61421543957102   -1.74251567937954
O           1.15410073661701   -0.92808386182787   -1.46108359158158
O          -0.20425058534047   -2.29630159232615   -2.97546259049179
O          -0.40047819558189   -2.56379996033200   -0.56956749979088
O          -1.24101657661937   -0.56028894510012   -1.62151639069743
H          -0.89328492039862    0.35860226713792   -1.43383568992155
H           0.09263743212568   -2.17291266279301    0.22746483705804
O          -0.44084270501250    1.85324135463044   -1.11685841941965
H          -0.74843523745378    2.45183982417845   -1.79912664105801
O          -0.55794891025752    0.90167428302439    1.50307477287645
H          -0.61166907020641    1.37173049810129    0.65773555266472
H          -1.36956056419352    0.33698945581798    1.52451056109776
O           0.89280910476163   -1.38155586567267    1.26720747540508
H           0.39185924715254   -0.55632638081455    1.45330107179469
H           1.65789862338178   -1.11099139520232    0.74763745603873
O           2.19856391907739    1.39760945282504    1.53315968478542
H           2.57293914053842    1.98109411640050    2.19366897011501
H           1.25063148593998    1.32290137384138    1.72511407991856
O           2.10708343807807    1.56915232464411   -1.20316614408215
H           2.02223456262754    0.63263458608994   -1.45253453569102
H           0.57063305120693    1.82818100288134   -1.18542893635783
H           2.33959819445063    1.56380529014241   -0.25659774895584
N          -2.52744604613097   -0.88897998203210    1.10349028118460
H          -2.24681979991023   -1.78417629129832    1.48602526094748
H          -2.41382287967610   -0.94901854833045    0.09561058920338
H          -3.51259711529895   -0.76280492443644    1.29969326430274
