    26
        -50.45232624  Gyration_radius:  2.47435303504 Dipole_moment: 5.071
 S           0.64829831925083    0.21002658750788   -1.75621596208380
O           0.25433513307687    1.45432420601275   -1.08797616098148
O           1.68367315511047   -0.48513165717285   -1.02836048556646
O          -0.50835615509991   -0.60098248378517   -2.06953836234668
O           1.28042620649853    0.63918248938598   -3.14344227748980
H           0.51019456959294    0.80010367586265   -3.67934033466313
H          -0.48690419829428   -1.46483643475859   -0.70210151896826
O          -0.40703795501598   -1.91695879505586    0.17162150840866
H           0.48956407823014   -2.25841800440057    0.17640400400298
O          -2.33924305716870    1.00263144502043   -0.17490489816503
H          -1.55236098599764    1.16392999547885   -0.71737115257488
H          -2.73956893023682    0.17255946841749   -0.48903090582706
O          -3.25468914058418   -1.61209763437638   -0.15661585839704
H          -2.37522937603798   -2.00846776469751   -0.14062529926928
H          -3.58517230000278   -1.63876092816454    0.74378748788498
O           0.80923547704874    1.72429549046429    1.36187762127462
H           1.74150901357619    1.20930374878566    1.42575319124508
H           0.61128038516998    1.75644257488483    0.36129863006178
O          -1.00677177247629    0.09735245075580    1.87687596020610
H          -0.74278453763376   -0.72363698579711    1.41054369328876
H           0.05297001110349    1.05989250754635    1.71102219296704
H          -1.66754061923137    0.51356654303242    1.25599573528327
N           2.95775280750164    0.38841807172009    1.25338228802768
H           3.13066636924122   -0.34528342111311    1.92781085834372
H           3.81724510101340    0.90102328115404    1.10749513504666
H           2.67850841135702   -0.03847842674106    0.36165491029534
