    26
        -50.45232627  Gyration_radius:  2.47416423933 Dipole_moment: 5.069
 S           1.66244308165472   -0.43650750039084   -0.77356043860086
O           1.40908643402824    0.99924789546178   -0.61689609930039
O           1.61720327227316   -1.13036701096829    0.49201218233195
O           0.81284956130114   -1.00605080086505   -1.79706672493768
O           3.14834816849063   -0.56317929100098   -1.30657481951967
H           3.05007568313685   -0.37651077940372   -2.23493917799298
H          -0.38502533968686   -1.44304217461862   -0.80189150574721
O          -1.07005060865738   -1.64438570286968   -0.12037397042148
H          -0.60251302110714   -2.17064979637670    0.53158573555408
O          -1.06718122112864    1.43875094344202   -1.81590396732284
H          -0.13206136805544    1.25577781497875   -1.63809651010352
H          -1.42256968293570    0.67296855628527   -2.30077627101015
O          -2.62488146800300   -0.77975324283382   -2.38929048192056
H          -2.19771624488102   -1.35251385298356   -1.74099113222393
H          -3.44605902289570   -0.48040731085675   -1.99334707420492
O           0.25588113429186    1.78909109053371    1.48786366447281
H           0.79677165977997    1.59252511613037    0.64521479132739
H           0.64338213146619    1.10576302667677    2.21032166526349
O          -1.86813486904745    0.84081815527225    0.59367571105671
H          -1.74473011919655    1.21497859831352   -0.32282722274785
H          -1.68127564493724   -0.11444404570598    0.47617139792620
H          -0.71274615048692    1.44351591023954    1.20932708916854
N           1.26386584902846    0.00626617261981    2.97684267705695
H           0.66872982713409   -0.53525349687951    3.58970178484498
H           2.11100154973502    0.24222667354472    3.47625423574138
H           1.51530641868436   -0.56886495775406    2.16356446133341
