    26
        -50.44970687  Gyration_radius:  2.4490803582 Dipole_moment: 6.201
 S           1.59976624532484    0.66772014580851   -0.46621227647854
O           0.37294839751816    1.33463073030205   -0.11814953052673
O           2.79522898872106    1.14035117399176    0.12744510064485
O           1.46124682736446   -0.84177837870543   -0.15143928842094
O           1.73796166917307    0.70212189694652   -2.01265680967445
H           0.84449560772195    0.51543152397437   -2.39975574987144
H           0.54298714411565   -1.18772945820955   -0.38320158690247
O          -0.83756428485225   -1.74254928591402   -0.82559395245522
H          -0.90370646166207   -2.68474964541935   -0.66228820580849
O          -2.21386685492118    1.49393033159448   -1.00735553613213
H          -1.33133514672221    1.65822495260584   -0.63938278196995
H          -2.05825972186498    1.21882456305490   -1.91519687674966
O          -0.60833829104357   -0.07320609514971   -2.90376811817337
H          -0.51404038920573   -0.53716844721343   -3.73836125399966
H          -0.80777057315781   -0.74567350090574   -2.21816045651482
O          -0.62750408551769    0.51924361875177    2.30349932393702
H           0.20892121610038    0.14889079293937    2.64993430653504
H          -0.34202976504561    1.06554263595203    1.55741437754086
O          -2.43785183531159   -0.58270495706534    0.70959116541853
H          -2.62626770950596    0.21395599950972    0.17066591240959
H          -1.52595235158407   -1.28785789135994   -0.17231620379219
H          -1.87089260828549   -0.25409808444904    1.44854075264835
N           2.00943088031737   -0.15392895497034    2.69368861029711
H           2.36725224666395    0.39572026481425    1.91754817892611
H           2.25871532875517   -1.11758916920017    2.50722495734708
H           2.50642554691444    0.13444520822937    3.52828594175023
