    26
        -50.45286635  Gyration_radius:  2.47760692251 Dipole_moment: 6.981
 S           1.42447870003274   -1.30466711878451   -0.51553333272277
O           0.32856956183490   -0.87300267002736   -1.42181494539808
O           2.33587941641116   -2.20732699294045   -1.12552740786153
O           2.05702394674987   -0.09494063754222    0.05439542384855
O           0.72209981893608   -2.03485663718875    0.67376510690820
H           0.08865093057462   -1.39569780841139    1.10831894454549
H           1.92406684538421    1.04038689211575   -1.04903339632605
O          -1.16451094823497   -0.60400017243834    1.76605456243919
H          -1.64229747996897   -1.42129636489584    1.98038518776114
O          -0.47964346583313    2.74391250712473   -0.37540009303379
H          -0.08722157752310    2.31803758859838    0.44739788296845
H          -0.69477317506861    3.64520673888254   -0.13369113369879
O          -1.81055891936960   -3.24369725418475    1.34396107870855
H          -2.23595094404891   -3.32544622817049    0.48757766687914
H          -0.86292906550048   -3.33585620524952    1.18791473298576
O           0.62007247818492    1.49688064343284    1.61547958556315
H          -0.02092217729447    0.89755918070741    2.02168046714337
H           1.26144774598528    0.91015556644674    1.15765966726344
O          -1.91970405917698    0.28910448807847   -0.58922867756947
H          -1.19065312401218   -0.21866450938580   -1.00221318503018
H          -1.60426663795918   -0.24684131367013    0.95132886098706
H          -1.65130824502078    1.21713433221075   -0.62962171034474
N           1.31948197741968    1.40781657800016   -1.84443987879872
H           0.77980765303195    0.49247103018548   -1.99250010083747
H           1.83956933706598    1.72433807037150   -2.65422438151900
H           0.66359139749703    2.12329029679411   -1.46269093491697
