    26
        -50.44970683  Gyration_radius:  2.44905166388 Dipole_moment: 6.203
 S           0.98864770437942   -0.81675730391068    1.25658315970797
O           1.37886125411969    0.04770634815147    0.17425060445878
O           1.54904079841998   -0.56519978245655    2.53232991085257
O          -0.55384673901392   -0.79729120887357    1.38765358734341
O           1.29576109095699   -2.27871277356901    0.83242593211754
H           1.03026288140156   -2.37972916378296   -0.11745698069711
H          -1.00398262329345   -0.78025680565984    0.48556170485910
O          -1.69896822442467   -0.84859711472276   -0.90060501218339
H          -2.65304266150320   -0.87384999298672   -0.81172123185730
O           1.25280624236230    0.11489858322433   -2.56216493821667
H           1.15815096541531   -0.82975692015335   -2.71288593157872
H           1.49810007619801    0.19725110240512   -1.62713828536055
O           0.02821175714667    2.43647489859893    0.18333135889233
H          -0.25102948072779    2.40218759680906    1.12012952667199
H           0.72769953795395    1.76978008483398    0.13034852894562
O           0.30014198214977   -2.48799226317875   -1.58943374021497
H          -0.00052123882933   -3.38445428980095   -1.75265577555595
H          -0.49804920698817   -1.93167070971162   -1.46523277610705
O          -1.08320434391355    1.33471925391718   -1.95749076127957
H          -1.47602051902558    0.07478955776972   -1.35337461812403
H          -0.79004451021191    1.89707531856747   -1.20033000995750
H          -0.25162750457479    1.06730651156737   -2.40201369778423
N          -0.25677603674900    1.78515966586282    2.83922667019967
H          -0.03122463832963    2.44986932967297    3.57002738860866
H           0.46353889739522    1.06846344639158    2.84255671930248
H          -1.12288544030959    1.32858664102759    3.09807865697528
