    26
        -50.44928040  Gyration_radius:  2.53508847054 Dipole_moment: 5.888
 S           1.64423413684694    0.70221118051384    0.72082035575387
O           0.46132051726627    1.03056951952940   -0.03331859510051
O           1.81488728580330    1.43028299089290    1.93738828087885
O           1.60797215806282   -0.82640988028605    1.01906379022261
O           2.88152582067823    0.83617327546843   -0.15326323141172
H           2.69465498514011    0.28238271015124   -1.05182461599238
H           0.67418687581315   -1.20335770213880    0.93025454725620
O          -0.74272376524544   -1.81422573527347    0.79305338498540
H          -0.87482772310834   -2.45126790317563    1.49710804149268
O          -2.93658176988154    0.51746978794885   -1.37325298097799
H          -3.62498344890520   -0.06768350900659   -1.69290692309747
H          -2.09037032409937    0.16870499281180   -1.70628326949698
O          -0.45719731310621   -0.69142861058733   -1.75302622928421
H          -0.63598017318009   -1.40870252646303   -1.13118732703075
H          -0.17565569853107    0.05479856062962   -1.17271102699125
O          -0.75342820243085    1.89482050112276    2.63695623891512
H           0.16739366322676    1.83505943659359    2.32768683218000
H          -0.71368768830172    1.96088784788186    3.59291351348529
O          -2.31941120915789    0.12275223630525    1.27793459939650
H          -1.80595000882372    0.83450633761414    1.70688816381899
H          -2.58085289876576    0.46272651692170    0.40068193594759
H          -1.38385793790834   -1.03931365320592    0.99305611255276
N           2.35641224246014   -0.51807810299246   -2.23501583029989
H           2.82201995750204   -1.41523544502766   -2.20379023428622
H           2.62835073648074   -0.03345721100193   -3.07981033275815
H           1.34254979217308   -0.66418562526160   -2.24741520018915
