    26
        -50.45286618  Gyration_radius:  2.47786689515 Dipole_moment: 6.968
 S           1.42640140409144    1.26734555401045    0.59525820245670
O           0.72843723636420    1.36046317077795   -0.71326664193306
O           2.37094045110770    2.30728313659285    0.80476209395263
O           0.40342669912196    1.15296356786835    1.65798389991880
O           2.18670873732836   -0.09723064856982    0.56909972687516
H           1.51927563502550   -0.82806993815381    0.43093378265629
H          -0.86458955533221    1.95489424188656    1.14275620649226
O           0.63890635988399   -2.10338382228175   -0.04685158780593
H           1.39752516163302   -2.54247146713241   -0.46400154144092
O          -2.81043893165191   -0.01440612758223   -0.06837853552680
H          -2.23210464941722   -0.44968394017335    0.63053146784016
H          -3.69650419099870   -0.34987592770479    0.07047097818368
O           3.08410174442315   -2.09927815035598   -1.30456172353865
H           3.29402884368471   -1.41940476838554   -0.65288322185771
H           3.00056682311014   -1.65016052485392   -2.14841868550498
O          -1.17653998901366   -0.97743545096445    1.70101610153248
H          -0.56312313901764   -0.22305958683508    1.84170192949073
H          -0.63284758415887   -1.67061606380626    1.30223599933537
O          -0.64271054299354   -0.64001807581179   -1.81660051554470
H           0.12231556776886   -1.70206027067099   -0.79298567830816
H          -1.51821121017551   -0.46544697963227   -1.44520982070793
H          -0.08762453880832    0.12720131513500   -1.56540284561329
N          -1.41507414065395    2.24670705342702    0.27899854993452
H          -1.74915509813926    3.20296470663758    0.29814150789650
H          -2.16701600019625    1.54422339449794    0.10912408546517
H          -0.61669510306994    2.06855561216094   -0.41445373435846
