    26
        -50.45175102  Gyration_radius:  2.42859388 Dipole_moment: 9.020
 S          -1.99631048746570    0.25333229834537    0.58875576606592
O          -0.69226798881052   -0.08870366548174    1.17904878239348
O          -3.11504068806939   -0.30588673432254    1.26423391160354
O          -2.03667607750360    1.72682613834672    0.41659274401982
O          -2.00533771177205   -0.34175166737931   -0.86590697149169
H          -1.12480782493759   -0.23099472334135   -1.28642702914824
H          -0.81905738002294    2.17893388117227    0.75736929889159
O           0.36623867853790   -0.33445799337125   -2.04508263129620
H           0.22053347370153   -0.58084835943683   -2.95984076094273
O           1.85315773534306    1.61075594139685   -0.98504765633674
H           1.29989276123618    0.92221793943001   -1.41876139828970
H           2.31875112632598    2.07156438380048   -1.68427944709035
O          -1.29634532644476   -2.66225902174326    0.75502754398424
H          -2.23975828624584   -2.66518861034987    0.58070199621754
H          -1.11447305440183   -1.77269736873304    1.10186040887491
O           1.95778944395294   -0.57778438547938    0.98164450217262
H           2.20914369829238    0.12429024177014    0.37244331730269
H           1.00430569732900   -0.46623240398865    1.14562473461684
O           0.96316546698773   -2.44174138941289   -0.74470837620166
H           0.62867262891059   -1.20086595726319   -1.56076196857839
H           1.51707814205734   -2.04015338777635   -0.04740805545061
H           0.14045877117878   -2.70935472650907   -0.28690437758997
N           0.26495392618481    2.38008410596354    1.11280480271472
H           0.41367687363243    1.61042837096846    1.76774914081716
H           0.37714627032129    3.28607568210671    1.55362003422641
H           0.90511010168369    2.25441142129422    0.30765167852058
