    26
        -50.45050553  Gyration_radius:  2.59527440088 Dipole_moment: 3.896
 S           1.03765740541186    0.02093627991163   -1.87503370502499
O           1.83672748742718    0.39328654881534   -0.71938144712761
O           1.66715056260648   -0.80466784487769   -2.83461494908436
O          -0.22770660932654   -0.69186679593949   -1.34974770334001
O           0.51313733602304    1.30716319069706   -2.53322144329518
H           0.04438040710566    1.85234638413674   -1.81752721042638
H          -0.57382155313872   -0.26755044372418   -0.45144114103278
O          -0.55580885686434    2.55431164807177   -0.58026418785280
H          -0.98266733441708    1.88377743853330   -0.02280996838215
O           1.35892170884101    0.25775023014940    1.94356208827386
H           1.61550768686741    1.16292839334407    2.14579320376090
H           1.73252485414201    0.07917227247769    1.06319433910057
O          -0.93166591295422   -3.32662370482995   -0.71424171607187
H          -0.29092807401089   -3.94409036309284   -1.07044913333527
H          -0.72186409883416   -2.46551810543039   -1.10367389530437
O           1.93437092378247    2.77822372660207    0.44164761970165
H           2.03566446974685    1.91896943331391   -0.02106519570204
H           2.55202611939032    3.38406625967804    0.03016665747638
O          -1.03528341844873    0.24479661997220    0.81995186788207
H           0.24375412556126    2.84109471563827   -0.09397569286476
H          -0.21554498059177    0.23469121554436    1.37523781832819
H          -1.58537619726158   -0.54015444906617    1.13978417555124
N          -2.27022547913296   -1.96361755940499    1.52524926597334
H          -1.87879472510359   -2.59362314132582    0.82735151725863
H          -3.27773498555588   -1.99351347788523    1.43617826048355
H          -2.02440090085835   -2.32228847162842    2.43933057495703
