    26
        -50.46815420  Gyration_radius:  2.47603546734 Dipole_moment: 5.895
 S          -0.80336870124602    0.20616187952401   -0.77395441365261
O          -1.38696508145750   -0.22441144311637    0.48979853949729
O           0.22644055496754   -0.71286608422981   -1.24019745764940
O          -1.92089465638529    0.28070916416119   -1.83575478546534
O          -0.26147559316424    1.56586286280381   -0.64874603994948
O           0.44976068058438    2.51718536028603    1.74421055967196
H           0.01957387888275    2.22809464623776    0.91156160320793
H          -0.23031386987609    2.95565139663576    2.25739125192307
O          -2.50744817103805   -2.60086659141139    0.16578213495794
H          -3.40830953910802   -2.53801818508465    0.48723669825289
H          -2.07683822141639   -1.74788632187526    0.38998586286698
O           2.34902548999299   -0.83721057918135    0.31514322192100
H           1.63959467799742   -1.02464808122865   -0.33917406060285
H           2.49146040382999    0.57533976046232    0.00728663865169
O           0.65500133823056   -0.22308539106717    2.22907361567579
H           1.85956899684329   -0.79073234712424    1.17513477613877
H           0.71199245309797    0.73824338009144    2.34194874317989
H          -0.15665194997183   -0.35821046471079    1.70327537233685
O          -1.71182910203359   -2.21063497696852   -2.35962558199766
H          -1.98039910295829   -0.66607055920261   -2.16504997500595
H          -0.77242127733118   -2.07266634981159   -2.16686485642754
H          -2.08817296673157   -2.58505134849579   -1.53492686918501
N           2.31284694228321    1.64878479808248   -0.23993573465364
H           2.95674226455124    2.00873253848591   -0.93536486554423
H           2.32490965305229    2.21104695175105    0.61104819851371
H           1.30817091840583    1.65654600499244   -0.58928255666166
