    26
        -50.45127734  Gyration_radius:  2.48015970958 Dipole_moment: 5.945
 S           1.62409697476089    0.67075121197597   -0.60173135669018
O           0.26182521016248    1.14106771670484   -0.53636137849561
O           2.53774219694851    1.34255505068161    0.26307551110645
O           1.61242902870752   -0.86372807057790   -0.30453430175125
O           2.10963920636884    0.68033171655987   -2.04055030060867
H           1.44069773764051    0.03131122302695   -2.58044593653816
H           1.23448449403565   -1.04402236528718    0.61024352271464
O           0.53328345935755   -1.32735642709466    1.97881704406059
H           0.65102900818606   -2.23171317270784    2.27485625014299
O          -1.70831077675963   -0.27986709497746   -1.41807354977041
H          -2.45850554236258    0.30366353378072   -1.54994731280411
H          -0.99231379148793    0.29854393505007   -1.04938264881346
O           0.78880333551912    1.47426529872499    2.38340238634374
H           1.44187634747558    1.65253884929226    1.69096712370951
H           0.82966813874056    0.52254681841917    2.53831882341715
O          -1.86629947589516    1.59846203187625    1.88560796261358
H          -0.88723153335417    1.67845242786223    1.89408251693817
H          -2.15839206070275    1.93281347836632    2.73523368155910
O          -1.90843669940796   -0.99633182562081    1.25584707534077
H          -1.90227918710412   -0.96196485686063    0.28406358547358
H          -0.44715418531185   -1.23145039643314    1.73138082080795
H          -2.02376466279023   -0.05750300338689    1.53083991602334
N           0.49149388392158   -0.90918155672830   -3.16367134416443
H           0.35473361420937   -0.79573448099421   -4.15917341179173
H          -0.39912508265146   -0.78886715844301   -2.67773976375923
H           0.84001036180818   -1.83958291321041   -2.97512491505563
