    26
        -50.44926946  Gyration_radius:  2.40447092638 Dipole_moment: 3.108
 S           1.91464655374608    0.21449286429193   -0.49611400597423
O           2.49595330261392   -1.04668499233038   -0.13114727357588
O           2.54740563809675    0.98516005866113   -1.51142194883787
O           0.44504565998415   -0.04807239496394   -0.91608608709296
O           1.80080656981983    1.10621023850240    0.76011806800938
H           1.04127850288914    0.80183053920609    1.35734950976455
H           0.15413989689976   -1.00567179314854   -0.77845663924071
O          -0.22352526083046    0.40220085193626    2.12234674843779
H          -0.32321817209437    0.91422985941184    2.92737731601414
O           0.46414445517484    2.73958030262972   -1.13790101616119
H           0.90097505850897    3.44238078323782   -0.65193186175317
H           1.16946687115410    2.14336300313023   -1.43264919751971
O          -0.23470360672318   -2.49622903601333   -0.53001205492956
H           0.07580247748666   -2.52209796667329    0.41871047599351
H           0.39888443858486   -3.02486911707717   -1.02077013869971
O           0.91514014808866   -2.13030749530511    1.76969629702992
H           0.46625345694054   -1.34227950016226    2.10877059564131
H           1.68592285075440   -1.81297691911226    1.26307988962429
O          -1.60381939522367    1.57981014346119    0.35602225608617
H          -2.01094831710785    0.87120547525808   -0.19877432506074
H          -0.85607540251442    0.83695331210252    1.43290456220679
H          -0.93634287943245    2.00186664497742   -0.21663814208706
N          -2.54067652560704   -0.45190659709387   -1.19413144755573
H          -2.09905361069689   -0.22587357207118   -2.07659709924061
H          -3.52401131555486   -0.61983349082449   -1.36445569117634
H          -2.12349138495270   -1.31248120202748   -0.85928880990544
