    26
        -50.47045230  Gyration_radius:  2.53832041788 Dipole_moment: 4.643
 S           0.66044494052053    0.25236520585167    0.91617993739036
O           1.44554277487470    1.32645467375135    0.32740027490857
O           0.39178074650496   -0.79601667688088   -0.09798864572958
O           1.49042251357334   -0.41995676604457    2.03527965143213
O          -0.59033547136223    0.71228646194168    1.48183875202345
O          -2.05758846092387   -1.46181599763574    1.20764122238878
H          -1.59672494995600   -0.63707787459687    1.47508656723192
H          -1.36666339656809   -1.99304151358082    0.80209039054029
O          -3.56302357761643   -0.41786364664610   -0.67785861082980
H          -4.18027406178474    0.16979633950090   -0.23901507500941
H          -3.10371848783671   -0.91847781216600    0.04863950752702
O           2.69678344873047   -1.80260147952799   -0.95768369334473
H           1.81529785241439   -1.45087009716845   -0.71067110956926
H           2.69657891637488   -2.72881015038620   -0.70972634659537
O          -0.63366174748296    2.76850297666064   -0.36457059614497
H          -1.08701088127226    2.65392307950726    0.47834051093943
H           0.27336767680107    2.43915356511954   -0.17466689234507
O           3.71633719350465   -0.04999723468642    0.82137674183115
H           2.44590705526079   -0.35788004351997    1.72541518561513
H           3.61147235452493   -0.71212312103267    0.10718308103594
H           3.28259639262912    0.75028013372303    0.48860483900821
N          -1.27679105782930    0.53700580437654   -1.62722479730644
H          -2.24848005665586    0.20997383408186   -1.36263829770576
H          -1.12966739759203    0.49470338478953   -2.63027972214928
H          -1.10615514472282    1.51581043166921   -1.24673656174220
H          -0.58643718413785   -0.08372348708566   -1.11601630340836
