    26
        -50.45137713  Gyration_radius:  2.44202349801 Dipole_moment: 3.697
 S           1.23969925484549    1.47636659950026    0.09084110991520
O           1.27114440142542    1.88953859237664   -1.28318693226297
O           1.89566074986056    2.28857075021692    1.05496532475391
O          -0.24063808203616    1.31464190914072    0.51971742591920
O           1.83213773992137    0.04900103983240    0.20080332976289
H           1.44540665114699   -0.57159912978544   -0.49296134887833
H          -0.85649417943037    1.11677052375071   -0.24823633203739
O           0.77229173659914   -1.59315836537766   -1.45477274299461
H           1.20103092852627   -2.44760598888047   -1.38194636643382
O           1.36236993873996    0.42014751024213    2.94533817803112
H           1.50071238471888    1.21959094035901    2.41366149264446
H           2.14766089249436   -0.11355115529274    2.80737993793701
O          -1.84479843777118    0.83627927508927   -1.45240786558323
H          -1.20600986144702    0.66996910194233   -2.21211894820761
H          -2.32191932562372    1.63813952952721   -1.67295902721638
O           0.04677056384431    0.46663479722052   -3.17683566370199
H           0.38072137268926   -0.40503975106720   -2.92293827473424
H           0.61845976547243    1.10318236696907   -2.70614689141448
O          -1.47724910601009   -1.69854409601269   -0.25866423624597
H          -0.13783704160897   -1.69345261168442   -1.00468299042674
H          -1.32591929035444   -1.47288190518437    0.70711139720442
H          -1.94944935280140   -0.94517573130398   -0.63213337148075
N          -1.11601673066001   -0.99161628333824    2.27778180530979
H          -1.15745586533069   -1.73144005938126    2.96848671136387
H          -1.84769093973642   -0.32736950582940    2.50022719711073
H          -0.23258817745878   -0.49739834304082    2.41367707163956
