    26
        -50.44403645  Gyration_radius:  2.53949195993 Dipole_moment: 3.662
 S          -1.51465611406710    0.94693151319203   -1.43957440041247
O          -0.38842322582223    0.12089931480949   -1.80619427919184
O          -2.80545328454997    0.44898678173650   -1.73871719893188
O          -1.40930496283986    1.21394966226774    0.10183245719126
O          -1.30067050030385    2.36378504447556   -1.99048382262847
H          -0.30122791374776    2.50696979303625   -1.95595677196678
H          -1.59291977478398    0.30797059500819    0.59028960700471
O          -1.77078969827378   -1.01152573907841    1.17284632180199
H          -2.70474864576085   -1.22740124178600    1.12621799252934
O           0.92198163014404    2.18400711113047    1.02754373647858
H           0.85355379585354    2.94897508828034    1.60187846673704
H           0.01377951981281    1.93466256434623    0.76838844855001
O           0.94304779434210   -0.42502896298691    2.22612272165928
H           0.00451093006121   -0.62120037309830    2.13457538416246
H           1.08367455918711    0.45379883884053    1.84887082718043
O           1.23679907113485    2.24689677835448   -1.70610326917715
H           1.10985488621127    1.30263006993188   -1.88795055512240
H           1.39871939534149    2.31384525297263   -0.74799848387145
O          -0.59115861732366   -2.32109474006021   -0.63682853376765
H          -0.49550268679491   -1.58531106751761   -1.26379863099066
H           0.32749239666571   -2.49575434681978   -0.28739539747695
H          -1.30490364879379   -1.62678898172500    0.48173037744048
N           1.84744153738791   -2.52344458479212    0.44308594416548
H           2.08895509416590   -3.39614207796908    0.89421847481318
H           1.71724729176854   -1.82048816070153    1.17197654613244
H           2.63270115098959   -2.24012815184168   -0.12857594232537
