    26
        -50.47160949  Gyration_radius:  2.4545655693 Dipole_moment: 3.825
 S           0.33917286516954   -0.59335937035564   -0.52762417143774
O           1.78035721544122   -0.15676863482139   -0.94230110974979
O           0.52436793950033   -1.37074893453850    0.68277001667370
O          -0.39205888388273    0.66284187161978   -0.23935413638780
O          -0.28407395277292   -1.31027180457984   -1.61282583982511
O          -1.09799712058174    0.78992903668282   -2.98416278445936
H          -1.31521611468018    1.33980167120624   -2.22555531258628
H          -0.93931818431903   -0.10059269529121   -2.60486293670470
O           2.34694994137561    0.07360399000060    1.92492148242966
H           1.81479800724626   -0.63299264940116    1.49904948777369
H           2.89337525009369    0.42366560918197    1.21739597251444
O          -1.32758454080196   -1.24187484531825    2.65819954719424
H          -2.03584713124525   -1.18107851812651    1.98755950240092
H          -0.59788623295442   -1.65781670897390    2.16884303907858
O          -2.52236624084549   -0.91093261651305    0.24331950658888
H          -2.37313158038315   -1.63172574031764   -0.37375276920124
H          -1.86405875658441   -0.23819917276661    0.00309684012571
O           1.51488870395986    0.98127039016295   -3.25159894908744
H           1.73323602818240    0.31301082486761   -1.82521743933364
H           1.76057629953219    0.35360971906123   -3.93488217145052
H           0.52527173165567    1.04293066674833   -3.28047377452815
N          -0.10159681351721    1.04653581167741    2.31417083289199
H          -0.26816732648779    1.06113300778023    1.26375943557342
H           0.92010931476379    0.84051302665196    2.41580858663221
H          -0.38184848060122    1.90684192237397    2.77122891007903
H          -0.65195193726133    0.19067416298683    2.65248822479489
