    26
        -50.43756365  Gyration_radius:  2.67104516797 Dipole_moment: 3.886
 S           1.74711673612360    2.27119998345041    0.69918336926564
O           0.59583544548603    2.22342681461519   -0.15394737529880
O           2.38654040646013    3.51781832366070    0.90850402408519
O           1.22429050555405    1.75019909194312    2.11164321658553
O           2.76105349340337    1.21641094215359    0.28786423137826
H           2.25953834495618    0.30596236460386    0.15002301038755
H           1.87325422350797    2.03152895499615    2.75117427776773
O           1.60100076192676   -0.96457321538413    0.03985259346490
H           2.27986826155650   -1.63623683180808   -0.05433731057621
O          -1.20617706832343    1.08984771894790   -1.93849310616671
H          -1.81894317763443    0.95739074938696   -1.20698764935998
H          -0.52332669213018    1.67627549231612   -1.58736942695901
O          -0.81510281058794   -1.37303974869566    1.50590315322248
H          -1.21776348657945   -0.49773880089814    1.37743156928268
H           0.09749571503003   -1.27393194525653    1.20593656383075
O          -1.63799945900297    1.22340992318623    0.98433677665812
H          -1.82584923811525    1.69615086982668    1.79614955316697
H          -0.81016912618651    1.60063899896903    0.63231488081208
O           0.19608537901098   -1.20300783312352   -2.02267967843586
H          -0.29159713859161   -0.36018255586504   -2.15003421125021
H           1.02662748299365   -1.02570214971066   -0.84302643825757
H          -0.49534296290050   -1.84839613985528   -1.71051118828458
N          -1.67509617308119   -2.73556455758488   -0.87554438997775
H          -2.62948809928100   -2.50818951137901   -1.12389154690716
H          -1.50941219123502   -2.38995614724146    0.07360772177254
H          -1.59243913287196   -3.74374077182050   -0.85710262006370
