    26
        -50.43248016  Gyration_radius:  2.95316729194 Dipole_moment: 2.320
 S          -2.60724503566822   -0.86924873614816    0.85807789174670
O          -2.83054087609078   -2.10863897339414    1.52448145506263
O          -1.72525007319597    0.08167345873438    1.46423776676786
O          -2.19287599652585   -1.12158080386066   -0.58962966283902
O          -4.01170575852903   -0.15288474574266    0.71188736902166
H          -4.68034632562491   -0.83167811641070    0.64115955484111
H          -1.59324395391672   -0.31436568796375   -0.88060913340846
O          -0.71616414366125    0.84791516505879   -0.91810661174177
H          -0.77997911120031    1.00030939696863    0.03629262864387
O          -0.21900574317189   -1.98090176187143    2.48130745658691
H          -0.51637076134654   -1.06440653041473    2.43535368971927
H          -1.01672328627309   -2.49727417086017    2.32138934393349
O           0.33652160644543    3.13112353504963   -2.06444418053510
H          -0.20749259936122    2.42621661951559   -1.66893688073380
H           0.36947138184397    2.94106504705074   -3.00382500211223
O           2.66484907714296    2.40304883179321   -0.83116632465301
H           1.85403262672628    2.81012595488173   -1.19859225400003
H           3.40481226986527    2.84014315114039   -1.25392048614793
O           1.61637283986711   -0.08463156927341   -1.25441303656216
H           1.80806752834536   -0.73455920392064   -0.52576460735137
H           0.21811595074100    0.43318175258380   -1.08282954460188
H           2.15404047576203    0.70692868813024   -1.06496947860176
N           2.12208725707989   -1.78934350312897    0.75237520631935
H           2.87110342185918   -1.45996116416852    1.34951198090127
H           2.38076046509495   -2.70988703813936    0.41910439970065
H           1.29670878380750   -1.90236958562982    1.34202847003928
