    26
        -50.44403653  Gyration_radius:  2.53951840533 Dipole_moment: 3.664
 S           0.52965504248559    1.69790128365336    1.44908076588646
O          -0.75564735049390    1.47296854138500    0.83063886764097
O           0.59374481544903    1.60063700157330    2.85975562625689
O           1.53303426793160    0.67309924388875    0.81569310848399
O           1.11097575956437    3.02257182339263    0.93510705479902
H           0.78449573179511    3.09644463098490   -0.01782648942803
H           1.25879686458907   -0.27982065567218    1.14708279737893
O           0.74680666828131   -1.56668983685495    1.58758274283794
H           0.98881959337644   -1.67617382862982    2.50978806936439
O           0.52852770903454   -1.98481259765655   -1.34428955832110
H           0.86748358551711   -1.13657806269262   -1.66068342609575
H           0.76153457348941   -2.04793002595397   -0.41185721125498
O           0.05554908117386    2.75290060368119   -1.37754727014612
H          -0.64686922472001    2.29637873644419   -0.88858535517457
H           0.56694641861046    2.05393349564025   -1.82308167873937
O           1.68650747351716    0.59026699927917   -1.86839995009044
H           2.57183695161838    0.62729243472392   -2.23515525719630
H           1.77426236686041    0.62456411119582   -0.89622877118381
O          -1.70849912780314   -0.97811246251440    1.50599878886822
H          -0.27792493071954   -1.41448935530783    1.58187924169396
H          -1.59090476043081   -0.02629832530332    1.35162622071130
H          -2.04619003086969   -1.34921068720737    0.64303688322874
N          -2.33780338949266   -1.91507242131221   -0.91893883737938
H          -2.81154801526351   -1.28247265679875   -1.55069725950409
H          -2.80219825699650   -2.81243603299034   -0.96989647830129
H          -1.38139182622088   -2.03886197651941   -1.25408265422282
