    26
        -50.45039466  Gyration_radius:  2.44967320644 Dipole_moment: 4.502
 S          -0.09101940092012   -2.02517290925033    0.32119728288677
O          -0.43417276329054   -1.07744652808652   -0.71597422071573
O           0.53701135006962   -3.22422048018902   -0.09438560120811
O           0.83605655725176   -1.33280973407599    1.35278632561203
O          -1.37501001011361   -2.31341743827289    1.12984193709568
H          -2.08635438781032   -1.66443020887565    0.83033110711849
H           0.67028604771669   -0.34545662442870    1.42455794856116
O           0.60041024603375    1.22386954834863    1.52656747201475
H           1.14729022417418    1.51582013592712    2.25792965329042
O          -3.00417725081118   -0.58131431481185    0.15611390942683
H          -2.71911544141583   -0.69854053874742   -0.75560465667543
H          -2.68780695385296    0.30945082383701    0.41321217691224
O          -1.91000169342292    1.83515165553389    0.74274927054239
H          -1.01580809068697    1.64115933886242    1.09006214414431
H          -2.32337312142761    2.45184654509319    1.34869878972908
O          -0.56932470183623    1.43717450879418   -1.77666153543323
H          -0.52921203898118    0.49134042457932   -1.56419336327096
H          -1.17247317722998    1.81817350089974   -1.12752280490722
O           1.85119308887836    1.62845654765274   -0.62359277818739
H           1.08144267370124    1.72674647018887   -1.22519916233566
H           1.13930806989947    1.43802978967080    0.66137121982782
H           2.22278722840401    0.73636477756907   -0.83253130197075
N           2.47954574797889   -0.96803709546556   -1.10379665868120
H           1.52552940716216   -1.26195506420361   -1.28374762748579
H           2.77574346852761   -1.47142930579368   -0.27620833233467
H           3.05124493202554   -1.28935382475897   -1.87600118397331
