    26
        -50.47216058  Gyration_radius:  2.41246537051 Dipole_moment: 6.328
 S           0.29394208569843   -1.70666016239168    0.22727889503107
O          -1.09783278777269   -1.30338028609620    0.11151184183531
O           0.46335280052401   -3.09397986721472   -0.44840028830649
O           1.15896717427721   -0.77259861330692   -0.53151886086262
O           0.74353860182297   -1.79348076649530    1.59679933564087
O          -1.88100601822983    1.03334071795084    1.13093383241653
H          -1.75349551075569    0.15068026950179    0.73049486845588
H          -1.39687497790774    0.99172986085991    1.96416480228047
O           0.25421754336985    0.38292954408890    2.92652708446082
H           0.38570158036018   -0.49193517752397    2.47356353378374
H           0.40817595945354    0.21993124291600    3.85854467301022
O          -0.53575328296810    2.43801977231581   -0.65940499384956
H          -1.22120474735817    2.05633683164107   -0.05783323973073
H          -0.51578530421843    1.84593304009581   -1.43416258182934
O           0.02091918692457    0.46030864217540   -2.52695572101528
H           0.44844512990417   -0.03703898098799   -1.78652205101701
H           0.71771427635413    0.66529780722349   -3.15262023550708
O          -1.08739606926993   -2.16788187885234   -2.37549266384574
H          -1.50680794473662   -1.85405845841910   -1.55585207833280
H          -0.80084441624661   -1.35681946394587   -2.81809676949104
H          -0.01850503093020   -2.97177890928501   -1.29624678643637
N           1.41521938014647    1.48433457732450    0.74038805531852
H           1.47068325133018    0.54228032267580    0.25236831514051
H           0.66046896890719    2.03129235945723    0.17461496578200
H           1.06128817981587    1.29273627589240    1.69647750644501
H           2.31287193149594    1.95446131045010    0.75943855063061
