    26
        -50.44724325  Gyration_radius:  2.48595515416 Dipole_moment: 2.978
 S           0.88927003436566   -1.03160238516307   -1.28476505691347
O           0.45246031471980    0.31148530910827   -1.54664404338967
O           2.28771181751310   -1.27251075872443   -1.27614398900667
O           0.30811377625665   -1.46539279025501    0.09361555650682
O           0.22188948671395   -2.00651168718859   -2.28097707066894
H          -0.76512372601184   -1.89689128021490   -2.24838385609987
H          -0.62330152411543   -1.07823617585579    0.22707124666630
O          -2.03728101244205   -0.48968344790768    0.44213751484538
H          -2.02125751522483   -0.26188390516362    1.38102651084273
O           1.43640268517151    0.14825449523468    2.19442687079130
H           1.27251793795480   -0.70462961811333    1.77990800463305
H           1.99158927474842    0.64173594385135    1.54041933397754
O          -2.35518175514403   -1.85947488504776   -1.90345808268338
H          -2.47960670999643   -1.38764572459067   -1.06361768526551
H          -2.72444115025797   -2.73836400194947   -1.79247082559174
O          -0.90354831610587    1.36311022772413    2.20633325220372
H          -0.01759332349392    0.91818987449196    2.23894112451957
H          -0.93661311872107    1.93351506313320    2.97450292355165
O          -1.47651824308457    1.85286723325614   -0.46814796531056
H          -1.96790292562297    0.41528227529990   -0.00111657801037
H          -1.13528641860764    2.04906348401777    0.41960155832048
H          -0.73045365364192    1.50961867748803   -0.98949405963373
N           2.73462914758460    1.22923572054553    0.10131210329385
H           2.86347375640527    0.34252339202153   -0.37960957341513
H           3.62388948275557    1.71423151841784    0.10678392664616
H           2.09216165848075    1.76371344518459   -0.47125113076375
