    26
        -50.44724326  Gyration_radius:  2.48585813363 Dipole_moment: 2.979
 S           1.43978855315765   -1.00136560204420   -0.65538976524975
O           1.61903493817898    0.10291721614900    0.24552450675759
O           1.78605347103708   -2.29303006967213   -0.18053991834508
O          -0.05401699736711   -1.02418172736052   -1.09561178347606
O           2.20041688176512   -0.73463588856716   -1.97394696809844
H           1.91855468583129    0.13938484695164   -2.35322273423589
H          -0.41187779933736   -0.07668420210969   -1.19496342582437
O          -0.96731492047943    1.35864315095134   -1.34156385566675
H          -1.86205939623518    1.26468637192829   -0.98865710805729
O          -1.74309842092424   -1.58036014260133    1.16791207555636
H          -1.40894081003715   -1.79159654005068    0.29049121088248
H          -0.95426271313869   -1.65551151971467    1.76075405080921
O           1.17764634749993    1.41637056415624   -3.03807747031677
H           0.95200388071423    1.25796673412324   -3.95740970859724
H           0.34719806847818    1.58471133871833   -2.56337911993991
O          -2.32686855360177    0.98892769852801    1.07149692937839
H          -2.14122457050983    0.01611784283765    1.12747374369877
H          -3.06481006532947    1.14733429796762    1.66040723839932
O           0.12506294938451    2.27423999368464    0.80373072380559
H           0.81082050081563    1.58450478461043    0.78926564595357
H          -0.49428852347991    1.85452015639818   -0.59985339640475
H          -0.63823613044427    1.90489629654465    1.27668194059537
N           0.64445619467679   -1.67713575123145    2.40355884614522
H           1.11700114406495   -2.13319948837285    1.62708287483127
H           0.88168996359323   -2.17774809372388    3.25158923669907
H           1.04727133273886   -0.74977227915681    2.46664624073027
