    26
        -50.44534239  Gyration_radius:  2.51408238697 Dipole_moment: 5.169
 S           1.33136126908560   -1.91439420333197    0.23778795801997
O           1.68398782153978   -0.83237344667381    1.10915707687303
O           2.05952172762814   -3.12409158810523    0.29663126235338
O          -0.18513799559556   -2.24544883567690    0.45462400105021
O           1.34652076658831   -1.39930129099290   -1.23302984498199
H           1.15117207146455   -0.41711571189173   -1.25388584930699
H          -0.69340472232063   -1.45009436330425    0.82338512415798
O          -1.56638922329532   -0.28603357151618    1.34876073582870
H          -2.17582804930952   -0.61220691237232    2.01313535746704
O           0.64467414732322    1.06758064289900   -1.52541877418003
H           0.81839872613767    1.27754505824673   -2.44519815525605
H          -0.34614741040130    0.89368738556706   -1.45908801506692
O          -1.30134985604568   -2.19124631572804   -2.08286030430358
H          -0.51304473251398   -2.25140763585733   -2.62803648442872
H          -1.03068676504867   -2.49290207590071   -1.20295363760161
O          -1.83117015125752    0.37048312844233   -1.32952447787984
H          -1.81252752888136   -0.53205583126470   -1.70832202898026
H          -1.94994003864282    0.25112237696871   -0.37447997643035
O           0.28237969341006    0.97697636310122    2.53248379297902
H           0.97145476690672    0.35662371694550    2.23809981556942
H           0.44957110567646    1.79832671634433    2.00537168876366
H          -0.87228905315566    0.28306065995579    1.85107339414624
N           0.81208023521623    2.97483166135829    0.80003643425054
H           0.12540016898814    3.69058112774772    0.60031925598793
H           0.89730445370583    2.38052977778403   -0.01983804551557
H           1.70408857278258    3.42732316726988    0.95176969650316
