    26
        -50.44534251  Gyration_radius:  2.51410542785 Dipole_moment: 5.166
 S           1.91043084964812    1.02650867416249    0.88650946348855
O           1.24385406217298    1.78773462919235   -0.12865606530067
O           3.07157863429613    1.54749787369534    1.50069471339067
O           0.87139649537405    0.69102185827167    2.01083701379890
O           2.24369494527566   -0.38545741103136    0.31732601501240
H           1.58379788429816   -0.63241017385628   -0.39463123707366
H          -0.07917409923899    0.70634385009372    1.65995224073609
O          -1.56038367871494    0.66625950270731    1.21561664376749
H          -2.10930648601397    1.08683909449869    1.87971190067007
O           1.04536158343647   -2.05536209603170    2.34987137062625
H           1.88363826260126   -2.23759529997726    1.91819793277124
H           1.04970981961152   -1.10376961575891    2.53140721260403
O          -1.01900826585470   -1.97440734152748    0.57704803470827
H          -0.37045024028488   -2.17066982195315    1.28361678325204
H          -1.43174266752327   -1.13314557249995    0.82676825988647
O           0.52707649578529   -1.30569356666922   -1.37648967299343
H          -0.14290499622506   -1.60047095808879   -0.68323743077197
H           0.91781049287546   -2.10780041779806   -1.72889756603456
O          -1.33800245717710    2.25942622191566   -0.74048758820113
H          -1.55102080285007    1.30182473680634    0.40688369073192
H          -0.37649392268834    2.35391196209047   -0.62666233629655
H          -1.43599797438592    1.71796987932987   -1.56365450881390
N          -1.29997838081360    0.58142847089120   -2.85151125916506
H          -0.93253098182085    0.99545352705806   -3.69831298799696
H          -2.10966902153892    0.02673844064918   -3.09736375598229
H          -0.59168557029032   -0.04217645613869   -2.47453685689046
