    26
        -50.45701861  Gyration_radius:  2.41429583483 Dipole_moment: 9.089
 S           0.62974569278185    0.28484261422787   -1.21916333598513
O          -0.67582065842425   -0.36056524784469   -1.30076124357331
O           0.54860838345498    1.71565997652391   -1.11832776196086
O           1.30144104932564   -0.26288938802765    0.11974229396023
O           1.54485014822013   -0.22115426222301   -2.23719636901388
H           1.70814963944758   -1.55672088116307   -1.79014364413636
H           0.67178128508485   -0.18022312300999    0.86016788400154
O          -0.58302522259464   -0.22101517241491    1.99079738099333
H          -0.82929294858332   -0.15988731294472    2.91515710282538
O          -1.56332799705452    3.18449680713233   -0.01138572332972
H          -0.98198154723302    3.34174761333184    0.74814207332164
H          -0.96048919931657    2.88614415095627   -0.70797769763069
O          -0.45093869891975   -2.53777633326263    0.08151884127702
H          -0.44962498689551   -2.16657106865469    0.97194708930133
H          -0.74965655461534   -1.79072344762645   -0.49193134573936
O           0.63603845042927    2.45876626538253    1.54257435161018
H           0.82859356150077    2.27386804312533    0.60908700120259
H           0.36005635364097    1.62097361904476    1.92881913740443
O          -2.41447627939564    0.69554178791377    0.45537332066066
H          -2.29164843703448    1.66781582176551    0.34475431226448
H          -2.01910953498758    0.30877690161753   -0.34579550421304
H          -1.37358413397053    0.13299287867042    1.46018775368987
N           1.77939968187104   -2.56686168890440   -1.32168151419268
H           1.78484558845838   -3.29333544388486   -2.03175852896901
H           0.92086502449550   -2.65625000409191   -0.68738579728483
H           2.62860132032045   -2.59765310567146   -0.76476007648101
