    26
        -50.45104563  Gyration_radius:  2.44356183154 Dipole_moment: 1.130
 S           1.44445902534038   -0.43475594667532   -0.46336021224082
O           0.19925631811721   -0.35210134424127   -1.19236134434165
O           1.81393330299559   -1.75123993738745   -0.06000071620601
O           2.56821067118993    0.21576987281536   -1.26093217263279
O           1.32618200862562    0.49365437547517    0.77104218694206
H           0.45737212578009    0.22093763639214    1.29836474637748
H           2.19436120120737    1.08745939597470   -1.62644330199386
O          -0.84008476420905   -0.14654529095571    1.81607470616389
H          -0.90357972044319   -1.11715378678413    1.68394877392566
O           1.59833191488880    2.43717518271941   -2.02367022602038
H           1.02061912008498    2.73920378871410   -1.27161930980302
H           2.28082813001504    3.10380925931666   -2.12887998667040
O          -2.22869350437967   -1.61535800017857   -0.60452029215197
H          -1.98948323154671   -2.25320926163398    0.07333624774029
H          -1.39754453461571   -1.36845429792542   -1.03350156666460
O           0.19735087102548    3.00996239474903    0.12606368811236
H          -0.69707533920744    2.65825013755321    0.00714083283351
H           0.65287644442568    2.37831262966219    0.69734349919449
O          -1.83075473097557    1.16111072463682   -0.32918417477274
H          -1.10286163565085    0.71319893821355   -0.80646876720009
H          -2.62413362905688    0.68539628097354   -0.59554685815484
H          -1.42359468755477    0.28573999130364    1.15336523660196
N          -0.38577481084461   -2.83368895468664    1.43107154500625
H           0.43394589236249   -2.59198063567625    0.86952816678934
H          -0.71631053145729   -3.73218382939954    1.09486035012840
H          -0.04783588604757   -2.99330933294296    2.37434894908511
