    26
        -50.45520042  Gyration_radius:  2.46571915797 Dipole_moment: 3.877
 S           0.23879759600686    1.34340588842679   -1.25890912340766
O           0.11101611572554    1.71261459273126    0.13847344815808
O           1.33422161337745    1.90544094239210   -1.96031410289452
O           0.33330931055863   -0.20469981334049   -1.33038061574584
O          -1.06870802307929    1.66112428048332   -1.98502284585032
H          -1.85714088156301    1.21950411388775   -1.49429633234377
H           0.09432785609171   -0.68155658793189   -0.45543632391140
O          -0.25697330599435   -1.47350609376513    0.79304783126045
H           0.64008273989509   -1.56440262188441    1.21132564798206
O          -2.87724759363830    0.43330133547184   -0.71080700985944
H          -2.66171668857954    0.49334398715514    0.23562931129979
H          -2.74233830104003   -0.50699220237269   -0.96589296262328
O          -2.00229607790714   -2.03818120003222   -1.30837921422592
H          -1.48407527092633   -2.20194569589609   -0.50772849755980
H          -1.36439128364291   -1.86153915468713   -2.00482682659293
O           2.21754782403089   -1.49907131473417    1.64581749867656
H           2.76120342433346   -2.20201618759552    1.28706725306232
H           2.50856753158284   -0.65949487164690    1.19464296312631
O          -1.64267042970199    0.66853990029040    1.74258359630580
H          -1.80421492708085    1.18563834116128    2.53282203098507
H          -0.97360696996140    1.16348483217591    1.20960164305200
H          -0.76268230505174   -0.85639405183965    1.35014398942122
N           2.81630528047600    0.73804121603090    0.30031096211640
H           2.00790281114073    1.31163254517933    0.52272854546754
H           2.79278464950185    0.63299837867179   -0.70841741433533
H           3.64199530540829    1.28072943165563    0.52621655844704
