    26
        -50.46815403  Gyration_radius:  2.47646177758 Dipole_moment: 5.902
 S           0.23185183830812   -0.55327507565819   -0.96093208864198
O           1.00810119858886    0.66839763409898   -0.79578320108127
O          -1.17898709013314   -0.23567314497450   -1.21968702649102
O           0.74347546951676   -1.30233351479218   -2.20953991292181
O           0.34856884032876   -1.43418307274648    0.19375531881942
O           0.16519724276386    2.23020638106594    1.15125274393156
H           0.70090438161326    1.77555213286584    0.46360505415749
H          -1.06960177183153    2.29182773608418    0.38857564974817
O           2.88451184616561   -2.12805104063783    0.50336516506521
H           2.91488270188236   -3.08504712719942    0.54829083318060
H           1.93377985642309   -1.88452617771481    0.49628373035529
O          -2.97804549877283   -0.38789400120897    0.74948530953809
H          -3.40177566733498   -1.23612298488976    0.88735758612450
H          -2.35156586136902   -0.51318426457625    0.00530752046212
O          -0.64932211630941   -0.01840609434467    2.24210853662506
H          -0.04816026714853    1.50426196266710    1.79059028669973
H          -1.58444626151643   -0.11049123162083    2.00318467348680
H          -0.18141364223732   -0.61464193036775    1.62648580474257
O           3.16487711382719   -0.65682488263580   -1.71480452741857
H           1.73518458693965   -1.14896222232695   -2.17175365096143
H           2.77389987008422    0.15820651616300   -1.36608837052296
H           3.32668525788349   -1.21839965710987   -0.92716952555573
N          -1.94201764628460    2.07045610031422   -0.27110778860490
H          -1.62023223995391    1.22256990666081   -0.82711526877975
H          -2.19047485347723    2.84575370674321   -0.87526419416427
H          -2.73587727795534    1.76078435614246    0.28959736220651
