    26
        -50.47417410  Gyration_radius:  2.42092346003 Dipole_moment: 1.910
 S          -0.07232236149028    0.77502661235411   -1.84474510253145
O          -1.36613106716887    0.20476122900562   -1.52181137022431
O           0.16989425387956    2.02197273439286   -1.13491695297038
O           1.00531211938270   -0.18910057718859   -1.69484454595429
O          -0.09078310265355    1.16663300149001   -3.37880726613251
H          -0.36779402625733    2.07521477812134   -3.33847520916361
H           1.03836114468636   -1.55658605791958   -0.80338282025067
O           1.05371013404649   -2.33817112595809   -0.20018963457588
H           1.62873244262261   -2.98180174530301   -0.61644087245736
O          -1.79203312535744    1.89571648640414    0.58355650503428
H          -1.00690774072219    2.10563919040657    0.03043848038491
H          -2.35394459130578    1.40433627787479   -0.02729238528627
O           2.42201247119387    1.13880348566792    0.13999716417632
H           2.10973963627500    0.60667816138516   -0.61443820763128
H           1.90150114451972    1.94589490144410    0.06886631459596
O          -1.63494972117184   -1.87144108935541    0.12220297369238
H          -1.65242483456948   -1.18562833419928   -0.57928447561937
H          -0.77840965369163   -2.31592656416437    0.01088572568187
O           1.53105973750405   -0.62503423215130    1.93091434050331
H           0.01318133600905   -0.28948814451969    2.10922494318199
H           1.50006531921647   -1.38456130372578    1.32465151346311
H           1.96681132797151    0.08842030645595    1.40976396431323
N          -1.05050976822184   -0.18968169621664    2.05654726193431
H          -1.31236220866418    0.73060507724895    1.60865387017428
H          -1.47277564010510   -0.28446508847941    2.97297832832194
H          -1.38903323593985   -0.94781629306599    1.38594747734437
