    26
        -50.46114266  Gyration_radius:  2.69235036618 Dipole_moment: 2.316
 S           2.16576320293107   -0.29198765789990   -1.68487386548630
O           2.31950354380229   -1.35402060360587   -0.69279557023660
O           1.39659211324938   -0.67036051457687   -2.83224762560647
O           1.64026941784771    0.92309369830531   -1.04225155524507
O           3.63994214042756    0.05744042375461   -2.15703379363122
H           4.17007301274057   -0.10791150848359   -1.38230502955199
H           1.12688533988089    1.10832150022515    0.49667869940589
O           0.73956655585907    1.27666545375107    1.39019275965281
H           1.32711722249408    1.89982470116104    1.81926786953115
O          -1.80902390659825    1.87237388794761    0.44270516434049
H          -1.71450466510127    1.52990482106730   -0.45573140271278
H          -0.91959565707834    1.80876462352555    0.83120734287002
O          -3.04383294886712    0.00339733732633    1.86599294262756
H          -3.58492895089075    0.41256344487562    2.54173128461398
H          -2.70407102796239    0.73879001163535    1.29918602582400
O          -0.83631745328618    0.42616056285898   -1.75255198926401
H           0.06088693609694    0.76793914769786   -1.53079676859615
H          -0.74428331321184    0.14148984996377   -2.66718135229723
O          -0.59739967307574   -0.99237912653651    2.23687509329119
H          -0.40493277049578   -1.54117633320107    0.81380493521065
H          -0.06792929928249   -0.18108571050083    2.15639107687651
H          -1.53792272112938   -0.70280691843771    2.23012026818053
N          -0.22157505411778   -1.75330604462615   -0.22933603795032
H           0.82800265156588   -1.71796236171667   -0.38751118082930
H          -0.63691401738578   -0.99379657948778   -0.81538086562951
H          -0.59137068841027   -2.65993609501744   -0.49415644538634
