    26
        -50.45104544  Gyration_radius:  2.44352642939 Dipole_moment: 1.136
 S           1.50869702577340    0.46148538358200    0.01198486643230
O           0.59627736068955    0.17149393561239    1.09467483115672
O           1.69436989528337    1.84920470238864   -0.25652860793658
O           2.84945319395109   -0.22118171417567    0.25362623375433
O           0.98268219962356   -0.26582018269634   -1.25044715290004
H          -0.01952915933086    0.02167210977872   -1.39492866766447
H           2.63937236977093   -1.16487464495242    0.56763783869589
O          -1.42072086397809    0.36885417320943   -1.36820329267018
H          -1.44866443667227    1.29898812412889   -1.05550245655193
O           0.18614329927708   -2.92868119619641   -0.70563900833626
H           0.40515051220101   -2.18264250016830   -1.27866315184835
H          -0.61683326576588   -2.66811558208775   -0.23116221276090
O           2.23963233600541   -2.60104323938679    0.90323328057974
H           2.92570556914044   -3.22296356043933    0.65055281180260
H           1.44028087784464   -2.82213383023434    0.35303577338381
O          -1.90207502001691    1.32949237394797    1.59944528990106
H          -1.92332793389412    2.08139061696931    1.00134491772659
H          -0.97010346322093    1.07995862984366    1.66976135288256
O          -1.58608605908014   -1.32978366538873    0.72380236306774
H          -2.24371069928005   -0.96062465764964    1.32220235905611
H          -1.73095640600449   -0.20518522671001   -0.63268812377527
H          -0.74366288492065   -0.91143492701435    0.99520366202213
N          -0.90224293495399    2.98720567802529   -0.69812782884559
H          -0.91609025085291    3.31974960346334   -1.65661237358040
H           0.06529054588071    2.72164632782213   -0.50035800139453
H          -1.10905181749286    3.79334325837147   -0.11764470220286
