    26
        -50.47417344  Gyration_radius:  2.42097128736 Dipole_moment: 1.920
 S          -0.92070642887437    1.69479387424424    0.53867259887119
O          -0.71872017517832    0.87448135680215    1.71766240814789
O           0.31786425721552    2.30132852114626    0.07456058556519
O          -1.63947994201971    0.98565163931208   -0.50699381999653
O          -1.84918882354429    2.90861333510950    0.95301600000305
H          -1.20583241551777    3.56730796601525    1.19010240244249
H          -1.79396958118551   -0.62401856674601   -0.73460511436715
O          -1.81014370555570   -1.59947339676526   -0.88632155720552
H          -2.64928244712527   -1.78735289260356   -1.30906301114595
O           0.23094478834893    1.15564792228121   -2.40679499725723
H           0.78585687006785    1.76891433241637   -1.91346579033487
H          -0.59266050440498    1.13404789757989   -1.88613969710361
O          -0.65812264178432   -1.78393426643901    1.60212576481064
H          -1.21091718838087   -1.95533324531700    0.82202152051172
H          -0.77390166575128   -0.82669075958824    1.78415061888384
O           2.00714090400721    0.91909075107112    1.50721597590809
H           1.52930939909245    1.51969552511483    0.89277273718271
H           1.37611153293848    0.81104916616196    2.22861104982573
O           0.73871936896801   -1.42594156000002   -1.97174096966082
H          -0.17496685768755   -1.67818200628909   -1.75519436306276
H           0.67091118580940   -0.49095540387225   -2.27458096972413
H           1.42960099216393   -1.47204043656485   -0.56867003582634
N           1.69678768383022   -1.50737901436304    0.46652757697272
H           1.97281042971853   -0.54664936344996    0.80863711176177
H           2.43572809596631   -2.18125180559296    0.63080874928392
H           0.80610686885938   -1.76141956960300    0.99668522555912
