    26
        -50.45520032  Gyration_radius:  2.46568184927 Dipole_moment: 3.879
 S           1.20299840545568   -0.47634115847229   -1.33131634254092
O           1.55554378681185    0.60174608105606   -0.42661201304698
O           2.17867840430814   -1.48731039273901   -1.51524465773818
O          -0.10473480334488   -1.12591316993893   -0.80317043815737
O           0.79574266983751    0.11268354546174   -2.68215697419585
H           0.06011709032212    0.81886918361091   -2.54843182438665
H          -0.57823363989604   -0.58426733871081   -0.07350079202283
O          -1.35597311143645    0.15727296620813    1.00107294730321
H          -0.97082192187546   -0.25103392786349    1.82140773597084
O          -1.06856013988553    1.74925427833681   -2.18464804200085
H          -1.83923647662346    1.16986952806178   -1.99004251991229
H          -0.84833669523282    2.20002513341127   -1.35149100780646
O          -0.11768803688794   -1.07510485599677    2.95002254426736
H           0.72453525857588   -1.26861925596344    2.45366901959667
H          -0.49002721466424   -1.92399481198498    3.19332066320001
O          -2.83612248957239   -0.09676896629707   -1.34930589779251
H          -2.67327589952840   -0.02799546649310   -0.39789245765686
H          -2.41870327771996   -0.91517360640621   -1.63063935593559
O          -0.10008529883847    2.46652769159867    0.29439265663052
H           0.32446037647884    3.24653622862526    0.65392730117009
H           0.62106062672419    1.83737919454083    0.04762043995646
H          -1.02725758202974    1.07248960779975    0.96509443774894
N           2.03131939602011   -1.55300555303319    1.42449881113236
H           2.92064135918752   -1.81046235285024    1.83684616971403
H           2.15356810797319   -0.64436368483645    0.98699176924684
H           1.86039110598064   -2.19229892678187    0.65558779731302
