    26
        -50.44543537  Gyration_radius:  2.49187199169 Dipole_moment: 5.574
 S           1.84735819250197   -0.76894627129559   -0.64707581831167
O           2.74111204067299    0.29314994485787   -0.30658964407866
O           2.39565594984338   -2.05790015244516   -0.90107943427305
O           0.77700019683884   -0.91425281911642    0.45283361682642
O           1.02904210254209   -0.35232809768158   -1.91338961560728
H           0.71779325448210    0.58768740990866   -1.83005623910612
H          -0.03261355688263   -0.30205513509889    0.33463510043813
O          -0.12970230282502    1.96246998367817   -1.57259456892737
H          -0.66579613784198    2.17674260300081   -2.33883472715638
O          -0.07418131023977   -2.94744171964155   -1.51742485521793
H           0.83604918561356   -2.78945508647514   -1.21084162192488
H          -0.10145790588200   -2.61030416399590   -2.41530798238325
O           1.35058580635981    2.24417476688562    0.95321787190951
H           1.98588378638038    1.57464870169995    0.64591347098674
H           1.02063702582706    2.65955473647020    0.15157547485634
O          -2.11583025513617   -2.09596737514674    0.05955872170595
H          -1.96816102732302   -2.56502785515863    0.88258132270262
H          -1.42321889936149   -2.42756450519747   -0.55149937398556
O          -1.36583197142228    0.42648871073121    0.20367010612626
H          -0.72511052691017    1.54175892192256   -0.91469543713628
H          -1.37231645400160    0.77516275332466    1.14578842199890
H          -1.86769494258375   -0.42204812304095    0.16691631884737
N          -0.87177084820649    1.39161078128571    2.58400165736849
H          -0.00437641955226    1.78122223202773    2.20659943448707
H          -0.61445214225316    0.70126938045427    3.27792134470041
H          -1.36860280063654    2.13735038798337    3.05417646512762
