    26
        -50.44048311  Gyration_radius:  2.5637012179 Dipole_moment: 1.235
 S           1.07857467368956    2.12665726998373   -0.28451145352429
O          -0.10894257324300    2.09150274423564    0.50322720113480
O           1.00240278775903    2.63436454339875   -1.61233399154766
O           2.12415410627015    3.02689020367920    0.50186386862315
O           1.76441344835327    0.76108280754261   -0.30224046174649
H           1.55055350158072    0.16304380349968    0.51651020375246
H           2.73172336972351    3.36803216766360   -0.15092954554653
O           1.31170852264472   -0.77588270425630    1.63612850527304
H           2.13991456678747   -1.22716077184355    1.81118369771393
O           0.47766817444894   -2.03382682259722   -2.06749956037868
H           0.03596414788151   -2.53532729608689   -2.75417093182017
H           0.06290487516004   -1.13111216989887   -2.06935248916270
O          -1.05270035409414    0.55344146042853    2.50658340187930
H          -0.23813802230578    0.04298376143695    2.59196569335885
H          -0.81845575910446    1.28934244533217    1.91751002270309
O          -2.35836665339580   -0.79149158115289    0.62439959017505
H          -1.95287021428539   -0.26255844426785    1.35673309479875
H          -3.21703384840721   -1.07268286727221    0.94272606877867
O          -0.20721870598742   -2.44126246362725    0.47535156193950
H          -1.05879044654557   -1.95953051767938    0.47400766462410
H           0.10963102651527   -2.40676117217937   -0.45637568683697
H           0.69867347613069   -1.48135302350013    1.19500573755502
N          -0.87960237684671    0.28258764213557   -1.89897193159067
H          -0.24896209924209    1.06947143894806   -1.80104753468166
H          -1.40038391517910    0.19118127831962   -1.03171023847492
H          -1.54682170847962    0.51836828783377   -2.62405249712289
