    26
        -50.44048303  Gyration_radius:  2.56338562769 Dipole_moment: 1.238
 S           2.25095752755737    0.73512709845082    0.39930891756996
O           1.25503987005305    1.73931675854926    0.22199595762641
O           3.14309986424588    0.46108620516942   -0.67567848511545
O           3.13567153703126    1.18060608135837    1.64067608511852
O           1.62924100001498   -0.57258795231357    0.88813886037436
H           0.73280283287704   -0.45814719332006    1.39526702818941
H           3.98599127479820    0.76041471628399    1.53092075952196
O          -0.55315157310314   -0.41257067757045    2.12745018027801
H          -0.51068752915971   -1.07419757936886    2.82075291291918
O          -2.11054056005861    1.02670608222181   -1.03419012253396
H          -1.81653054144011    1.53747904337072   -0.23840157083103
H          -2.91200288218970    1.45152604226513   -1.34212957530762
O          -0.34859808302621   -2.67367365306050   -1.16657024416244
H           0.08690480781722   -1.83642942900296   -1.47673510252418
H          -0.66197239050521   -3.12245108516396   -1.95303012991176
O          -1.22362294394813    2.18959724994677    1.18291289378722
H          -0.31159425232312    2.27412367123695    0.85963923465645
H          -1.19354194448523    1.44956356402713    1.80167384764443
O          -2.09120434942149   -1.32153164802933    0.32873036423314
H          -1.21012518685538   -0.78862182659189    1.42376251689765
H          -2.19880497967176   -0.53914454844615   -0.24886876889313
H          -1.50023679058130   -1.93065322744348   -0.17072548460709
N           0.53684464424423   -0.28230807604846   -2.02353675482776
H           1.40633324835736   -0.03043466224810   -1.56865780775666
H          -0.17953778849223    0.36372947015061   -1.70554836088954
H           0.65926516830227   -0.12652445439739   -3.01715714146690
