    26
        -50.44665497  Gyration_radius:  2.47573377947 Dipole_moment: 5.162
 S           0.21626785349177   -1.47848474969137   -1.36173283650158
O           0.64545650057032   -0.11622259194485   -1.18127489004788
O           1.23294529525811   -2.46688486408954   -1.30638926136697
O          -0.89114124055110   -1.77361255241108   -0.30116323875520
O          -0.57435410705037   -1.60447630364986   -2.67612551979942
H          -1.30711795095096   -0.93838696463406   -2.58015854036406
H          -0.82677265104289   -1.15862641109214    0.49202231673024
O          -0.88084440445116   -0.22323221333969    1.74824078936110
H          -1.05676798363627   -0.73110129786579    2.54169976093466
O          -2.03157039277305    1.64929772261139    0.15087642635680
H          -2.71525208673854    2.13593369817237    0.61421823200819
H          -1.65837300722005    1.00387798695226    0.78160685579462
O          -2.49907308776852   -0.00787966960294   -1.98631187537556
H          -3.01920119698012   -0.64199695529916   -1.48615711499003
H          -2.23360492441910    0.68683733310822   -1.35261683679511
O           0.72161154296781    2.39366066687693   -0.11681877224234
H           0.86912092574306    1.60135016289762   -0.65488782407998
H          -0.23870541700014    2.49019868846307   -0.10124457645118
O           1.32997076976301    0.93416424701349    2.05388467369512
H           1.23426623627899    1.63246471119418    1.36728224148829
H           0.04082917316952    0.24196958139863    1.90128611605806
H           1.98438178354776    0.29719270873997    1.67349587407496
N           2.82512322512281   -0.82834137238998    0.66815676234204
H           3.78718849152645   -0.60956640019836    0.43797310636668
H           2.26794075158160   -0.66258003775836   -0.16558296550818
H           2.77767592162682   -1.82555513346649    0.83972108710566
