    26
        -50.43964642  Gyration_radius:  2.57409833233 Dipole_moment: 4.574
 S           0.65531830974652    1.42237104207356   -1.68265620562972
O           1.35546624474167    2.38587719547385   -0.89532192169706
O           1.04939099123672    0.05533847133921   -1.56655386699777
O          -0.85510388142705    1.56230102375113   -1.49818801710822
O           0.80553252437310    1.83144768433456   -3.19286068033278
H           0.86276383145607    2.78352094587839   -3.19620220180741
H          -1.12883299764335    1.36098515087639   -0.48595058808961
O          -1.48850945239027    1.05693538390082    0.83607303027573
H          -2.31541270552368    1.49682661128700    1.04665866689176
O          -0.17136670835083   -2.57272862414885    2.01902862506907
H           0.63320708364427   -2.12429936947155    1.62484294968966
H          -0.16845606839105   -2.34873768852239    2.95059547666133
O          -1.22455513622275   -1.35799085271544   -1.95494072241209
H          -1.71030372081806   -0.71339023869942   -2.47287971468511
H          -0.32541165100579   -1.00209974513799   -1.85160529966745
O           1.17558568910775    1.54902204791702    1.74480961362998
H           1.41799659906818    1.97512687663163    0.91098964343356
H           0.22117293149446    1.41796026167462    1.69827708247321
O          -2.04544237105994   -1.36394638217150    0.62187834568521
H          -1.39997263295026   -1.89572945170037    1.15769030991849
H          -1.71576454354556    0.01853806836400    0.79345077727568
H          -1.81910737673571   -1.54387781765757   -0.31397593481320
N           1.86599085523388   -1.18451402504253    1.03532621677118
H           2.81706177301123   -1.51259348951686    1.14620115864875
H           1.79903459028937   -0.26838040753762    1.48051388458645
H           1.70971782285758   -1.02796269121755    0.04479939232174
