    26
        -50.44119983  Gyration_radius:  2.70589604089 Dipole_moment: 4.303
 S           1.12307017731642   -1.18851621840335    0.68400222100888
O           1.27381390967178   -0.89886069437188   -0.71450280197272
O           1.58442282892015   -2.45983557682898    1.12156099684404
O           1.81891119128489   -0.03804078971854    1.49353435587287
O          -0.34155256422512   -0.98416146531006    1.11316860077686
H          -0.53206320227148    0.04742842635674    1.08113181788346
H           2.78693287694469   -0.16938265162179    1.25805884119760
O          -0.64224184135483    1.49769824330702    0.98443877914696
H           0.02184268582225    1.82559237914642    1.59578380227949
O          -2.97733645358524   -1.65078474422910    0.45039566393676
H          -3.38390854707429   -2.08388783547594    1.20276544974860
H          -2.02601242522215   -1.62244445251093    0.62255561478950
O          -1.93533130908654    1.29849353789869   -2.63365730880727
H          -2.48420430796066    1.14238146948092   -1.82965738713030
H          -2.32965157658864    2.04607611997077   -3.08455061105254
O          -3.19320371821737    0.99946316247958   -0.28766907343764
H          -3.26927989578441    0.04528066315392   -0.11289342207218
H          -2.51700174184223    1.32543277841405    0.31701222288361
O           0.37850357441347    1.55861083653942   -1.33210407556644
H           0.77988368132347    0.67030860873171   -1.29405678483462
H          -0.39601588881165    1.47326230423465   -1.93681833870189
H          -0.24759406043510    1.63168559339147    0.03999147491961
N           4.00740426415522   -0.93589199315751    0.47343367344963
H           3.75163249621947   -0.80359631926572   -0.49818713041971
H           3.73643569373815   -1.88076534759241    0.72495411591160
H           5.01254415261627   -0.84554604459503    0.56130929332634
