    26
        -50.43964656  Gyration_radius:  2.57389854441 Dipole_moment: 4.584
 S          -1.90084776878003   -0.06670824669485    1.29058014943126
O          -1.30018062095678    0.13075588150826    2.57068743908656
O          -1.63701470613970    0.90163462618187    0.27548725816847
O          -1.62401500259966   -1.47698759628515    0.77118339612714
O          -3.45839390677353   -0.12888870027979    1.49195813568566
H          -3.58986837185448   -0.50682405598959    2.35776733424372
H          -0.57639952363417   -1.62423237204366    0.62677942474725
O           0.79751864440558   -1.79995495460703    0.40043517461993
H           1.00846106242657   -2.73497092515592    0.45381776956377
O           2.35065835531990    1.01858372226369   -2.03845339079482
H           3.24031115649511    0.92756774705286   -1.69453739681811
H           1.83924009454013    1.53356996743676   -1.34781083766843
O           1.43341363159429    0.36698273824738    2.15188563453407
H           1.47608129126705   -0.42746912025068    1.60665941950550
H           0.53495936692414    0.38545388726558    2.50953802135078
O          -1.65997494792133   -0.49793493617617   -2.03961935460308
H          -2.21869881281436   -1.22643690836571   -1.76244155899704
H          -1.67345571258208    0.14708785042082   -1.31194564209858
O           0.94920194237100   -1.20886545036279   -2.01705412961847
H           0.91050181503057   -1.53589479272534   -0.62390982746149
H           0.03122419824118   -0.93240669307733   -2.21800239896207
H           1.50114678928328   -0.38937151001254   -2.11815808036976
N           1.03716516965076    2.20850012679756   -0.06237004635426
H           1.11838368120580    3.20630306087507    0.08671906764541
H           1.36133960161135    1.73989553858111    0.78459500183217
H           0.04924254365508    1.99061111541716   -0.14379054271324
