    26
        -50.43964656  Gyration_radius:  2.5739852122 Dipole_moment: 4.582
 S           2.13687973242408    0.83998398252752    0.10140783713359
O           2.76744291200560   -0.06054597567559   -0.80959978009824
O           0.99608663380281    1.56318773610553   -0.36026906215228
O           1.83138543528882    0.14625306971086    1.42827973120296
O           3.20995785879294    1.89247785349552    0.56112290496707
H           4.04391722614693    1.42971075072824    0.55017761074812
H           1.13725649404493   -0.65169957271636    1.28202542876575
O           0.19432292890926   -1.67372491792673    1.09120549623386
H           0.29045266407578   -2.32533790072318    1.78962068315538
O          -3.17101997466628   -0.37653244426676   -0.72393751257886
H          -2.42332469006461   -0.03248461704744   -1.29524837660833
H          -3.39824445898056   -1.23764676069926   -1.07727805922851
O           0.80936116312131   -1.81596972839088   -1.69588691105234
H           0.50139189157272   -2.01274256601224   -0.80331038765897
H           1.60952468303444   -1.28494089895188   -1.58061113924035
O          -0.56187321110081    1.87158300655878    1.83034858028243
H          -0.09881810357807    1.89318581489556    0.97550790569758
H           0.11897306728078    1.80731662881808    2.50262745968633
O          -1.92199238656061   -0.45368426688649    1.59120306848174
H          -1.60153140062757    0.46035026200367    1.73689812199084
H          -2.47654995216196   -0.41237657321317    0.76831665062824
H          -0.73298180410609   -1.18648623510962    1.27583505496176
N          -1.06615552725687    0.35470456265146   -2.16622327517907
H          -0.49380728092247   -0.48732407160670   -2.23966230983278
H          -0.51755862473137    1.02227812216683   -1.63381573591050
H          -1.18309528559671    0.73046477948079   -3.09873396448388
