    26
        -50.46452466  Gyration_radius:  2.41379595145 Dipole_moment: 2.381
 S          -0.89431073010142    0.32751063352764   -1.56420613627069
O          -0.36798334187460    1.42590344438021   -0.78154426789783
O          -0.08752694268930   -0.87913096239305   -1.40418458518220
O          -2.30194199364223    0.06311344708694   -1.34350536660126
O          -0.75909435968110    0.75906237542331   -3.07851103625830
H          -1.36416300761210    0.14602792480620   -3.47973282101581
H          -1.30788510676598    0.43029291449817    1.83522568729204
O          -0.43345912018292    0.85513723845314    1.79883694847051
H          -0.36761839637321    1.19500852222022    0.87980001888259
O           2.31508780917752   -0.66295650273576   -0.30544506360853
H           1.51924187388750   -0.78702951389806   -0.86881194635316
H           2.49534351033489    0.32107368546694   -0.32098958516518
O          -0.71302963785599   -2.44442284051423    0.65624135307277
H          -1.52573722334950   -2.00632414420782    0.96156254763035
H          -0.52274957233879   -2.04138965278449   -0.21718186586128
O          -2.66265603990096   -0.58155760472986    1.13814584547776
H          -3.59811732634695   -0.56565659929912    1.34593199953774
H          -2.58607637866990   -0.31681656097060    0.18447182022995
O           1.13149999987640   -1.14371605988592    1.80981712454967
H           0.57722521626371   -0.28111868277730    1.92488824304877
H           0.43702036291541   -1.81941344921588    1.45207285124282
H           1.76517026557827   -0.95521503853704    0.93341609845838
N           2.40194689433973    1.98317841558112   -0.36655226986009
H           2.90947172488455    2.47396561160781   -1.09114667414241
H           2.53078026675043    2.48767295857769    0.50137641345237
H           1.40956125337645    2.01680042031916   -0.59997533313011
