    26
        -50.46598350  Gyration_radius:  2.4906370837 Dipole_moment: 3.329
 S           1.26623843020400   -2.01994885285314   -0.36817646480442
O           1.89776215475508   -0.96712682990683   -1.15364761356815
O           1.20037356164922   -3.30241454488325   -0.98934947435947
O           2.20575027871212   -2.20425690771350    0.92568726121774
O          -0.00871934495425   -1.53095646361359    0.17013586393705
H           0.98724056946058   -0.28489727214633    0.81394324631894
H           2.46777067967732   -3.11572556218645    0.84794218858921
O           1.39308232561697    0.46881451118906    1.28178529775216
H           2.33704836327550    0.31094775081583    1.22775941750252
O          -2.30783374175079    1.41100130701702    0.69846520839051
H          -1.93376367094019    0.77043343311077    1.36083636572779
H          -3.13058559979507    1.73380742520902    1.06698677774252
O           0.13693652468817    2.49191823451745   -0.01446655117709
H          -0.78332070188281    2.31010462859523    0.24388080036042
H           0.67797029167384    1.91727316319342    0.56307530569412
O          -1.16125242434774   -0.32781475591630    2.31639381189232
H          -0.33537410489796    0.08774096080842    2.58865078626688
H          -0.89319107538614   -0.97468323241192    1.64065351209753
O          -1.89114754681198   -0.37360910359156   -1.36895421983574
H          -0.64787092269720    0.40659871271335   -2.01120988204218
H          -1.34851834050809   -0.99708533259903   -0.84937397212810
H          -2.23462213254900    0.26203840643742   -0.71495567916732
N           0.29913115183141    0.88350902977631   -2.09097000579467
H           0.49076574748810    1.21803794433603   -3.02781154685574
H           1.01354626016143    0.16069540127870   -1.78911859355254
H           0.30258326729556    1.66559794875242   -1.36816185017826
