    26
        -50.44140872  Gyration_radius:  2.52420008947 Dipole_moment: 5.034
 S           0.12069640727652    1.75903020865636    1.72560002402041
O          -1.17081853720491    1.12577319696836    1.76576945243170
O           0.57923291676320    2.38865620615762    2.90625735061277
O           1.14121771438330    0.67168636246401    1.23843560267093
O           0.18012635301151    2.77564251241713    0.56140006184369
H           0.07828664949229    2.32042710054080   -0.32257811259376
H           0.67929465246776   -0.21800135704878    1.42191828584671
O          -0.17646209754551   -1.43492008369288    1.73409550941706
H          -0.84255371104654   -0.91690174420949    2.20167241021458
O           2.20686634735513    0.14379917756315   -1.24573486068082
H           2.03015904779922   -0.80937170645131   -1.17665206488680
H           2.23383294589621    0.45229304565016   -0.32940045308981
O           1.61154790459479   -2.42606736971078   -0.43575673468602
H           1.24967083279868   -2.29134129594289    0.44877405609571
H           2.20005387438983   -3.18094472347253   -0.38760372433690
O           0.15110609394384    1.67452967863029   -1.79568987638911
H           0.91239387464630    1.04015599712043   -1.69047202487264
H           0.46089588499271    2.36271697949625   -2.38824903810345
O          -1.32339345110470   -2.19087513119958   -0.46735157411646
H          -0.59228143354850   -2.27892258955306   -1.08496731416206
H          -0.66278428133299   -1.78692894523585    0.92322022673427
H          -1.76994343356589   -1.31846253954877   -0.66676874796682
N          -2.27499180960012    0.26347146658520   -0.75552850339626
H          -2.06838294801158    0.61761127005349    0.17790879611321
H          -3.24704235108748    0.46220084791888   -0.95255143197169
H          -1.70672742575790    0.79474344586215   -1.40574729474241
