    26
        -50.47251616  Gyration_radius:  2.46955014644 Dipole_moment: 2.673
 S          -0.60546800437392    0.23498037543596    0.57972564310241
O          -1.17446290737132   -0.34783883404112    1.89764890129764
O          -0.31164565410757    1.65042996241929    0.76919942051393
O           0.64655002285553   -0.50867191126350    0.31003301561011
O          -1.58037560929556    0.01864959631757   -0.46105002114392
O          -0.44751805569213   -2.90163706200287   -0.22241494957458
H          -1.16539312609690   -2.99905932178512    0.40575488696375
H           0.02101434285409   -2.08518762532416    0.03359596674527
O          -1.24050075339923   -1.67312678075824   -2.50259199616931
H          -1.68643298760414   -1.05836156236923   -1.88909773442106
H          -0.97422638726919   -2.40557648454582   -1.91331175870734
O          -0.38555604781895    2.23494987421646   -1.81560575771200
H          -1.31831305103622    2.08733927160063   -1.99421649348132
H          -0.31302722201634    2.17748694795587   -0.83784844492711
O           1.35385337550265    2.19096211177856    2.75294436423433
H           0.77719590231884    2.08801776314417    1.96473819433345
H           0.91727039324068    2.82883265783915    3.31997636683955
O           1.12212357600818   -0.45282930344528    3.02017075984503
H          -0.37286823300968   -0.42647824547630    2.50105750230159
H           1.47107803878026   -0.69888963986155    2.15347340512124
H           1.34151429281392    0.49990271898801    3.12215566946667
N           0.81861761570562   -0.09057233774073   -2.27125968601238
H           0.96905795525390   -0.30045844611354   -1.24921391595639
H           0.42126935173918    0.88808255443897   -2.28397372919258
H           1.66944590774458   -0.17550740379694   -2.81634503254185
H           0.04679726428743   -0.77543888560796   -2.57354457655354
