    26
        -50.46194842  Gyration_radius:  2.51157068151 Dipole_moment: 4.756
 S           1.52821266106662   -0.45783317013367    1.39933087127497
O           1.90281243145117   -1.54781768971227    0.50453519991546
O           1.46029638192921    0.81463446424910    0.71344913049367
O           0.33653667200273   -0.77907073798945    2.16431780358592
O           2.70410277901074   -0.31607817112175    2.45273770878883
H           2.63351248093643   -1.09572661426558    2.99588524966143
H          -0.51387199721254   -1.46546129521267    0.88534771330597
O          -1.01793641064687   -1.84765062284229    0.13868634595544
H          -0.65185515748114   -2.72494753046528    0.01163766231046
O          -2.14829468229801    0.35530740078157    1.97115999956564
H          -1.29652516532274    0.00759059624700    2.28258126397414
H          -2.48615524849758   -0.31247971377348    1.36807952994168
O          -1.58641528916136    1.82752488144659   -1.94085009293839
H          -1.27979642850418    2.05769571711340   -1.02329474675436
H          -2.48969443425584    2.13957853397374   -2.00119482371991
O          -0.84349057395623    2.26986560994743    0.53871482146357
H          -1.43574585565787    1.73801985841009    1.10589708882987
H           0.03944549513522    1.88716683702201    0.66792520810056
O          -0.79578835744359   -0.66045773829601   -2.29444367187871
H          -1.18166221051265    0.24846444458168   -2.25033803076011
H           0.64440287446310   -0.39607570464160   -2.06716982717384
H          -1.03911183585483   -1.09789483565363   -1.45380969859247
N           1.65811508183979   -0.20176774086988   -1.68797834303722
H           1.88480859590509   -0.95455836503803   -0.98292621151783
H           1.62365073533666    0.62976696650169   -1.07454568395188
H           2.35044744768880   -0.11779539022578   -2.42373447683901
