    26
        -50.46598345  Gyration_radius:  2.4906440466 Dipole_moment: 3.331
 S           2.19706881601292    0.96381998165922    0.25097087717465
O           1.59363550047051    1.56966926705562   -0.92936898082215
O           3.58726240373899    0.66028782083609    0.15015114484044
O           2.07124757817615    2.07513418130201    1.40855525084068
O           1.35685225668445   -0.14675130605719    0.71479559289849
H           0.14060956964327    1.07029473126755    0.74436721798033
H           2.98310800856452    2.22124716556907    1.63799466115013
O          -0.65378660878061    1.62509264197589    0.85743704729998
H          -0.33968364881397    2.52542128456482    0.75908444694540
O          -2.27907718813720    0.40052342185262   -0.93454747971581
H          -2.34561984272651   -0.47984903659823   -0.52559202095727
H          -1.86039666872205    0.96302970339482   -0.25285083658242
O          -1.91276694220566   -1.99812415868665    0.39373786717699
H          -2.47010020363851   -2.70944138211579    0.71043965023192
H          -1.48867071622615   -1.59264182892396    1.19671141383062
O          -0.67912942738326   -0.79789633464868    2.39205035286964
H           0.19485889781361   -0.71494475156788    1.97234225864995
H          -1.02608834358675    0.10124559883511    2.39862009485330
O           0.51689814483736   -2.11739428005384   -0.91671662425005
H           0.21358771586273   -0.91781865015095   -1.93449992383438
H           1.00089007971905   -1.56802420693253   -0.27086058523258
H          -0.35089865593472   -2.28001993601406   -0.50422887820528
N          -0.04990806180998    0.04960245124725   -2.28850226209774
H          -1.02193602409830    0.25449805809092   -1.90484704419203
H          -0.00635607863955    0.12179758225327   -3.29805201916214
H           0.62839941938735    0.72124198189689   -1.82719122140867
