    26
        -50.44926939  Gyration_radius:  2.40454580803 Dipole_moment: 3.109
 S           0.74974445996237    1.38887292149448    1.21230293886722
O           1.36200509037157    0.62146659943710    2.26012037871324
O           0.32902092433190    2.71737889939424    1.50081318924168
O           1.70907843780645    1.45818804278331    0.00371498120787
O          -0.46947448507563    0.58488893877442    0.69040827205551
H          -0.55315774563967   -0.33171695943296    1.10658193244404
H           1.72755329350639    0.57951668915758   -0.50035708109675
O           1.57778300746262   -0.70920172986385   -1.31275910440233
H           2.17506602814209   -0.72210119168970   -2.06327301569411
O           1.92045811816412   -1.81296654573226    1.23638291209762
H           1.98051493780153   -0.95631086567636    1.69887604930453
H           1.94128015231048   -1.61532476421729    0.28873722886977
O          -0.61825692796736   -1.73907464248761    1.77790988986083
H           0.32778291435198   -1.98729793579142    1.57637981394188
H          -0.64563578895036   -1.58430434798329    2.72500875385820
O          -0.57904636291951    2.73520541978883   -1.09305882246378
H           0.08129344493749    3.28731687718359   -1.51715754811845
H          -0.40511903093057    2.79718540807856   -0.14136326622444
O          -0.63761239898714    0.15453635924286   -2.18237606825744
H          -1.34053413505699   -0.35267473388701   -1.70869153649477
H          -0.68979185179811    1.06041211889300   -1.82415439568907
H           0.65635129559598   -0.44030581610427   -1.69155537938540
N          -2.48296012908207   -1.19399372593758   -0.70449038126504
H          -1.98327759500100   -1.74119782602619   -0.01332808465543
H          -3.20790272351070   -1.77425932698784   -1.10681568059482
H          -2.92516291992072   -0.42423786191185   -0.21785596629564
