    26
        -50.46106741  Gyration_radius:  2.39315788544 Dipole_moment: 6.669
 S           0.61464645194598    0.84970124736188   -1.22004856458023
O           0.92795310512989    1.46553448434419    0.05952812599713
O           0.16070613853993    1.80596251574130   -2.21573625297411
O           1.92175898678769    0.18278155265062   -1.76029183386663
O          -0.38272473650903   -0.21546343983260   -1.07536260241484
H          -0.20033335613273   -1.58798653743111   -0.36814104683030
H           2.22513017126012   -0.43778372044669   -1.05910978986712
O          -0.02389111630046   -2.46435460659123    0.07906345244742
H          -0.37647841873265   -3.13750627932979   -0.50450160742460
O          -1.52097281625882    1.63108420234063    1.02521599311479
H          -2.06452384112882    1.62674011379855   -0.30908460023240
H          -0.57153866825614    1.74826917406622    0.80566327961368
O           1.52157499246591   -0.00439825425592    2.23792636654480
H           1.38204655153455    0.65375483865100    1.53199079304002
H           2.11173530810969   -0.65694453180126    1.84921349474434
O           2.51969571726284   -1.66579440090696    0.07321938209090
H           3.10415872441456   -2.34159566722170   -0.27515287273627
H           1.62582211992219   -2.07181247644057    0.16445728356930
O          -1.09255001859483   -0.72949858169734    2.14995898128676
H          -0.18380866401180   -0.47210496359851    2.41223906442056
H          -1.53970571787928    0.74552979964950    1.47552439199018
H          -0.96206098243578   -1.45340575813535    1.52634950264226
N          -2.29339617928164    1.64443270565920   -1.40568538135287
H          -1.33290422877886    1.80502273916225   -1.85628230236819
H          -2.96530602063182    2.36199633197508   -1.65850718531638
H          -2.60503351238540    0.71783953232242   -1.68244604157033
