    26
        -50.44926950  Gyration_radius:  2.40428467217 Dipole_moment: 3.101
 S           0.35919882333338    0.07729977672946   -1.95460519535156
O           1.43946724721945    1.01738950735422   -2.05861214518391
O          -0.49414397489764   -0.10306297015336   -3.07903224013422
O           0.92440749110085   -1.30898478148917   -1.57382600828309
O          -0.50690892351751    0.48794419035223   -0.73550082864031
H          -0.11831098178985    1.25785999016786   -0.20920824396368
H           1.19058222192072   -1.33974354410157   -0.59674785652721
O           1.40868312460058   -1.37393779142388    0.91804798050390
H           1.78389475763325   -2.21066405430556    1.19963557951485
O           0.54100513015427    2.44057114640737    0.56548561118042
H           1.43895712141863    2.01239471610086    0.65240099603457
H           0.65633248481778    3.14883165096673   -0.07233656207767
O          -1.86032907978878   -1.85092307164488   -1.45637146358579
H          -1.58371666167001   -2.69440536362814   -1.82090324597447
H          -1.52950136951147   -1.17639994252358   -2.06910793487680
O           2.70943413679323    1.03211566562701    0.32364012198146
H           2.51271592714791    1.00804442122526   -0.63141317211040
H           2.44425105689988    0.17184893055968    0.68019586725413
O          -1.09605118702834   -1.57952567280965    1.22543793232278
H           0.40006925877764   -1.43354359463314    1.12773275798476
H          -1.41317328176266   -0.69745720422612    1.53708218287660
H          -1.43455303266700   -1.66625871341528    0.31463906478026
N          -1.87273411744984    0.93343571944188    1.92507460408720
H          -2.46704940877909    1.16322723844081    1.13824729956192
H          -1.05784075023561    1.53354010511561    1.87332794796183
H          -2.37468601267737    1.15040362592167    2.77671696069591
