    26
        -50.44926939  Gyration_radius:  2.40456397649 Dipole_moment: 3.113
 S          -1.88551357141139    0.30054304168324    0.56184000930754
O          -1.77303591644392    1.30533651978436    1.58132206038569
O          -3.01471219234389   -0.56528870392953    0.58367544673894
O          -1.84578365831250    0.97596480622732   -0.82676010528351
O          -0.59778566205096   -0.56260154326087    0.60694729861102
H           0.09259336118103   -0.21804444641381    1.25863104896905
H          -0.90594467230393    1.26989103893553   -1.06488630454487
O           0.55616305907426    1.52966833037928   -1.43677447004654
H           0.62956596885556    1.97296472343280   -2.28428311575747
O           0.53517738772076    2.63231464768182    1.13588683867699
H           0.68103279839927    2.44145210930180    0.19793154635441
H          -0.39689605717178    2.41267014606976    1.32131593115614
O           1.12088027255766    0.37254652724688    2.27401211226863
H           0.66838509697596    0.41823234652738    3.11951910866426
H           1.09645278374511    1.30167001120813    1.90901271772067
O          -1.83850866932862   -1.75761721699595   -1.59552031464323
H          -2.27786712270222   -1.49245940913940   -0.77297770253658
H          -2.39393883753426   -1.43091347663507   -2.30662010108556
O           0.82463830722462   -0.94437076435183   -1.90316618557475
H          -0.07794680274933   -1.29953604283944   -1.79859087988705
H           0.75319749184997    0.53397021376300   -1.62254952817280
H           1.33927168621338   -1.31644740871829   -1.14657829445535
N           2.11054728369747   -1.88076577174108    0.30526396401666
H           2.99805777248970   -2.36593039745389    0.27285617610242
H           1.41240138740802   -2.51857195246721    0.66674650486750
H           2.18956852505829   -1.11467735824365    0.96374622817864
