    26
        -50.43974562  Gyration_radius:  2.54670892352 Dipole_moment: 5.538
 S          -1.45688384888172   -1.20891280029368   -0.70451857139278
O          -1.26301269618527    0.13350469798198   -1.14874377502517
O          -0.90747698740641   -2.24843745452452   -1.50541982516192
O          -0.93822203394702   -1.32531044770365    0.76635365784668
O          -2.97092032780365   -1.47336211746694   -0.48251888399968
H          -3.25324508332015   -0.76947462590367    0.13897797172227
H           0.10044822090262   -1.33044535585717    0.81313314443395
O           1.55742056646539   -1.26224390080665    0.93811824785124
H           1.84443779547924   -1.57367476225577    1.79864074406134
O           1.67363953653063   -1.39197082248554   -1.88178823834106
H           1.88631109696390   -1.58469048130276   -0.96030080450350
H           0.76822768433387   -1.71192060424730   -2.00497681631140
O          -3.03281062051882    0.20036866551126    1.56746506617600
H          -3.49172155696881   -0.17268709052590    2.32426023269671
H          -2.12502640933967   -0.13914902508590    1.58681964990756
O           2.40079836526212    1.20651613112873   -1.80124772460998
H           3.25870608963537    1.20775422811839   -2.22817284881500
H           2.02606853844474    0.31270945565421   -1.95396223065339
O           1.96116755379233    1.21824135933727    0.84722592100846
H           1.06301936900750    1.63400763218621    0.90476446359961
H           1.75515503473762   -0.23540863280370    0.91723146104839
H           2.21568687054709    1.33666174769835   -0.09410930552239
N          -0.52551041621295    2.21939059263161    0.66625920140839
H          -0.45711671305552    3.13386734449538    0.23591940475343
H          -1.28919184741279    2.25622097811981    1.33063230598785
H          -0.79994817105000    1.56844528839525   -0.07004244815825
