    26
        -50.43974562  Gyration_radius:  2.54682271666 Dipole_moment: 5.539
 S           1.67891755537645    1.11349678894354    0.14664065220934
O           0.54246538624495    1.28628510840729    0.99255147125297
O           2.75778396927111    0.33584882019849    0.65175758911667
O           1.19416432579998    0.54207436129347   -1.22613387818070
O           2.20991062023277    2.50063200093769   -0.30651292367874
H           1.43283349648016    2.93842880779474   -0.71377928781595
H           0.93804919850257   -0.46345774324563   -1.16022812616187
O           0.49053925933056   -1.85606455555339   -1.10130721599583
H           0.43398710515265   -2.23724175739331   -1.97958846037688
O           0.03551689919961    2.93738704921244   -1.75180133379523
H           0.12578785395224    1.97248117571335   -1.77456556696434
H           0.24562907904191    3.26308681065062   -2.63058982725811
O          -1.10182806529725   -1.95676825681233    2.32876876051135
H          -0.14405403858691   -1.82224131561297    2.16384566729725
H          -1.17031257278655   -2.77313753513993    2.82588185450415
O           1.48083452639954   -1.92490046590826    1.54386777280908
H           1.31363657190465   -2.20527020779344    0.63560350321588
H           2.02804938997316   -1.12995769186340    1.46683830880566
O          -1.85258187645952   -1.60170907011152   -0.22430032823199
H          -2.03983641214013   -0.62851518712873   -0.25034923524447
H          -0.49200084699595   -1.78077676613870   -0.75080707308132
H          -1.72149747681387   -1.79096140566342    0.73064119758621
N          -2.12499792517374    1.06332695964405   -0.01948919440088
H          -1.22795507361468    1.18035093467980    0.45250506457990
H          -2.84337156523949    1.24594958967632    0.67096066180868
H          -2.18966940375653    1.79165353121623   -0.72041004251793
