    26
        -50.43974561  Gyration_radius:  2.54679881555 Dipole_moment: 5.540
 S          -1.94426724535685   -0.39272043467369   -0.38213490697714
O          -1.50837548952386    0.57551987349242    0.57152196807758
O          -2.31063642895356    0.08000382553717   -1.67292909344762
O          -0.84767794456163   -1.50145751201651   -0.50131311655069
O          -3.11174029566011   -1.22550325404983    0.21357453385709
H          -2.75399273693418   -1.58065924490267    1.05456605775128
H          -0.01743934623968   -1.17173200332628   -1.03341178477105
O           1.20531086841434   -0.73032840626951   -1.70632934759208
H           1.74219892885072   -1.47949387089992   -1.97162266697253
O           1.42294565436219    2.85736112417384   -0.52676851408854
H           1.87757707059240    3.52692729172458   -1.03983641244693
H           0.71687577726623    2.50541449830624   -1.11005400132201
O          -1.50009921803821   -2.33808655760037    1.99465778944892
H          -0.91224304819808   -2.16205120250010    1.24429358831488
H          -1.61954497457752   -3.28977065621443    2.04468378104873
O          -0.16583200152679    1.65519658033696   -2.34827343096055
H           0.38842613013408    0.87378656628856   -2.46531963255314
H          -1.05338866051884    1.31175702511606   -2.17044461248019
O           2.41165776265603    0.45593416402355    0.15417928648747
H           1.73684354457555   -0.24254256860781   -0.94906639079942
H           2.18298692339762    1.39224319474604   -0.03541361277648
H           1.89847701084324    0.24758638942050    0.97643555585530
N           0.76376666507505    0.10914682088784    2.24765833565496
H          -0.06481933758361    0.38324917065656    1.71902437877591
H           0.94685737523113    0.85428756013871    2.90903114560514
H           0.51613301629000   -0.71406837380270    2.78329113287640
