    26
        -50.46114343  Gyration_radius:  2.6922302909 Dipole_moment: 2.311
 S           2.16066132635538    0.26176037228933   -1.69544743461398
O           2.47129988726262   -0.90522389178669   -0.87226706000949
O           1.43496813989926   -0.04357830001773   -2.89195997997823
O           1.48220622249978    1.28399027829642   -0.88312976569512
O           3.56761129081278    0.87547833549246   -2.09838450516609
H           4.12989555673735    0.64971067629521   -1.36261231536830
H           0.97222516187062    1.16683059878858    0.66312334916353
O           0.57832104762281    1.14632565281351    1.56942180082499
H           1.08057818931328    1.77463286245322    2.08957966619277
O          -2.98801127481859   -0.68810909181004    1.82968201594519
H          -3.56874962103379   -0.46052096940033    2.55616543486054
H          -2.76009718052426    0.16207354281435    1.37946275174421
O          -0.91266564805986    0.56230230414743   -1.67587270433848
H          -0.06774308745997    0.98758100857773   -1.39968286850441
H          -0.79461622166378    0.43187591821249   -2.62200415031458
O          -2.04050311256440    1.52112467474246    0.70480840234450
H          -1.91390827087762    1.33146251257932   -0.23395420310209
H          -1.14493869381839    1.52278576999565    1.08445973736393
O          -0.42371147885835   -1.38473601581875    2.06022812564288
H          -1.39482965655399   -1.22854309515655    2.09190861882856
H          -0.18003928303499   -1.68485222974816    0.57260384736531
H          -0.01071721451649   -0.50581372751227    2.10461282591661
N           0.01506207606231   -1.71315488216631   -0.48953087902214
H          -0.50832206963961   -0.93935676115150   -0.95871858359938
H          -0.23152389089746   -2.61260553187213   -0.88825176108632
H           1.04754781589253   -1.51144000106856   -0.63424036540317
