    26
        -50.45755867  Gyration_radius:  2.40666311568 Dipole_moment: 6.980
 S           0.78235181280908   -1.29991328964361    1.30505347365010
O           0.18992108209295   -2.54253773663027    0.87039381011531
O           1.63418066958247   -1.31745636499851    2.44413172289868
O           1.71644017419429   -0.80453617447534    0.07003878904115
O          -0.23380723321049   -0.22327776664667    1.38728693763327
H          -1.53115393974132   -0.04050667278797    0.53043942935530
H           1.23001403030481   -1.02057930212589   -0.76142642724900
O          -2.31132820804635    0.13746224018976   -0.06762221580227
H          -3.03334864788189    0.40365592338433    0.50188233891144
O           0.41697699220851   -1.10341217668635   -2.20993540798973
H           0.85055875894253   -1.68202636802901   -2.83832109624881
H          -0.39136389780402   -1.61624232258968   -1.86792473517215
O          -1.52494356705469   -2.31981730700131   -1.08426830890631
H          -0.96690427154893   -2.55350533309108   -0.30189379776283
H          -2.08484674763353   -1.58436925737095   -0.79148091622886
O           0.54283659467536    1.98476105035935    2.50642424375136
H          -0.13485118635370    2.32633907599412    3.09043443528494
H           0.28800178429647    1.05354683975111    2.29134360605962
O          -0.58352675296040    1.41388205150327   -1.71757017928651
H           0.54131975012261    1.80379799808144   -0.70567076355685
H          -0.22868919685818    0.61172673814992   -2.13685516411218
H          -1.34404167401887    1.09224496239311   -1.19349981437878
N           1.35944490262914    1.84478421518600   -0.01000706002479
H           1.02764254664523    2.14899157507991    0.93514650343519
H           2.11238534512324    2.43639115019642   -0.34515194844785
H           1.67673087949555    0.85059629181852    0.09905255502957
