    26
        -50.44280928  Gyration_radius:  2.71128776779 Dipole_moment: 5.281
 S           0.04318816309714   -0.02950782825797    2.03359912252349
O          -0.48612360860089    1.28759490205919    1.78311892762580
O          -0.88599429689061   -1.02143548311532    2.46553851318545
O           0.74227863677220   -0.49272331171445    0.72852891938162
O           1.20316727778117    0.05253802256892    3.03910431169593
H           1.71953094112943    0.89736053227584    2.78845067927143
H           0.40024620488826    0.15166125070359   -0.01180148884917
O          -0.17549113603655    1.13883590027495   -0.93514719888791
H          -0.58795979694763    1.66520167230156   -0.23882974304838
O          -0.40169007131602   -1.98905138684197   -3.29209790139316
H          -0.30911462656263   -1.88847887379489   -4.24023037801930
H           0.43514501380233   -1.67497519966760   -2.89459096115690
O           1.70041904206058   -0.78328982457284   -2.03750218923940
H           1.70398980419252   -1.14075515524590   -1.14392833993177
H           1.29844491663931    0.09038676115116   -1.96910927010355
O          -2.60551098651311   -1.61171492356568    0.47408075438486
H          -3.47253755714742   -1.62702771316281    0.88263109116835
H          -1.96686185250127   -1.48654208098331    1.19922556338323
O          -2.02811943230480   -0.34704090078629   -1.86406571963623
H          -0.93918132034354    0.61089815524119   -1.36660435046998
H          -1.56915088658795   -1.00718972269451   -2.42242755767787
H          -2.31563012077221   -0.83621388950689   -1.06955885675075
N           2.13195187360569    2.28238254445957    2.14366152989279
H           2.47104961860829    3.00810929411483    2.76083056459114
H           1.17713338566411    2.49497966864955    1.86804053881611
H           2.71682080427237    2.25599761011665    1.31908343924913
