    26
        -50.45283480  Gyration_radius:  2.46157980233 Dipole_moment: 7.991
 S          -1.62644292841819   -1.26116009539006    1.27693168516181
O          -1.17106844341734   -1.51177942767198   -0.12063072447532
O          -2.76457497592771   -2.01783389324641    1.65979919832508
O          -0.47199054400546   -1.35693020512865    2.17369722325412
O          -2.02680096083975    0.27760387383821    1.28229398669692
H          -1.70617865504317    0.70515569328677    0.46317089169493
H           1.19965706528804   -1.49740036356096    1.30430314159262
O          -1.19187646151041    1.61671645158423   -0.89925616780842
H          -1.91160914882983    2.18868724273034   -1.16844789614321
O           1.97448143284520    0.01054140918019   -2.22701932612518
H           1.95218765286795    0.70685288391943   -1.55448928071331
H           2.37787966170395    0.39162464739747   -3.00821579048474
O           1.32841330690942    1.42581579074369    0.14693130185252
H           0.47340812976545    1.66256689584799   -0.25166515701230
H           1.14873754777766    1.45888500802513    1.11787656097728
O           0.43216114625666    1.06938797698491    2.60939450542167
H          -0.33670802003407    1.59605091185083    2.83587072332740
H           0.09206590231904    0.14425243875784    2.55218983741288
O          -0.79456877359302   -0.36925400884144   -2.51737208767287
H          -1.10212087634619    0.90971671164096   -1.60480261370192
H           0.17607291261223   -0.41410748919136   -2.54018111555688
H          -1.07819883532525   -0.99255979475776   -1.82438169868713
N           1.29761467995184   -1.26231411116048    0.30709772595890
H           0.26818824591742   -1.44149486150714   -0.03193083815406
H           1.99328341139959   -1.80916884802824   -0.18828825453184
H           1.46798751767670   -0.22985483731422    0.20712414940472
