    26
        -50.44624771  Gyration_radius:  2.59889760229 Dipole_moment: 6.980
 S           0.32963065939902    2.27110153382343    1.87582350390759
O           1.38642538882714    1.97901549273840    0.93581467463066
O           0.36192053850654    3.52667525827437    2.52465696663832
O          -1.02637267858360    2.05479571015393    1.14936325285592
O           0.30722368763743    1.14769392371389    2.94845585484985
H           0.27144913822649    0.29072934653175    2.45640013020170
H          -0.90644391114506    1.83925906288699    0.16272253211259
O           0.08445502729299   -1.11617204588601    1.65468929155595
H           0.20770106687198   -1.83551613798604    2.27652494815451
O          -2.13643414182202   -0.70055747134413    0.12571861014122
H          -2.68722720991715   -0.04920350071531    0.56596938121408
H          -1.40588848669813   -0.89402358049466    0.74465591940946
O           1.87587839514859    0.84248547240302   -1.34681272937766
H           1.79013763964213    1.27479047320889   -0.46418020648859
H           2.52168119347972    1.35795696127713   -1.83188976850600
O          -0.83152214953587    1.24707166421408   -1.26457239290001
H           0.10384728032904    1.03954266091749   -1.44384051444873
H          -1.27727727533657    0.41182835463633   -1.02738236663191
O           1.45928375937469   -1.69643564296981   -0.42227880235814
H           0.69691550047621   -1.32308068482508    0.86695783888368
H           0.74104888760134   -1.96679547443631   -1.04481861761900
H           1.80349518318734   -0.86207631294563   -0.78077818852734
N          -0.67887376275105   -2.18197101176399   -2.03462114434134
H          -1.45643177245911   -1.90913486427718   -1.44190110239636
H          -0.82705048823003   -3.14211455431641   -2.31780144116625
H          -0.70757146947849   -1.60586463276396   -2.86687562975471
