    26
        -50.45755889  Gyration_radius:  2.40703634268 Dipole_moment: 6.991
 S           0.64367984421323    1.42209857922576   -1.25463583718257
O           0.07535008281368    2.60944531257284   -0.66184558796010
O           1.38966768970942    1.55676282915903   -2.45827274649175
O           1.69163307269194    0.84265657717028   -0.15476696083462
O          -0.36047888132734    0.33454462008915   -1.34119529930487
H          -1.57110152854018    0.05397059132217   -0.38974981801125
H           1.28020873976642    0.97886822598853    0.73215555774811
O          -2.29112933308697   -0.19016285925875    0.25849147810453
H          -3.05870855631679   -0.42180528426929   -0.26465700682651
O          -1.45251375105541    2.18795539804572    1.41161269047124
H          -0.97073170713110    2.49876235645561    0.60575914110866
H          -2.02582439880540    1.46765494143028    1.10738656260708
O           0.33865035967060   -1.75942687870983   -2.70393610384258
H          -0.38763249246163   -2.06804078629948   -3.24640791391901
H           0.09287113769356   -0.85407563048977   -2.39031429389452
O           0.60148379094442    0.92382653372614    2.24991694424927
H          -0.24166413916207    1.44583290731859    2.02710341960279
H           1.08322965822681    1.45757025926133    2.88286715007246
O          -0.40692376128112   -1.56350222397503    1.63582521636587
H          -1.21503774847317   -1.21431335689910    1.20965454597087
H           0.62678659155557   -1.84484140341481    0.49911829247990
H          -0.02598671083950   -0.79251390396877    2.08920270927337
N           1.37886786292168   -1.81110508095261   -0.26796683646966
H           0.96658828263181   -2.04219038542292   -1.20223455419899
H           2.16669043953061   -2.41300369425550   -0.05285560613796
H           1.67202544611146   -0.80496765385639   -0.32025510296959
