    26
        -50.46114339  Gyration_radius:  2.69229988562 Dipole_moment: 2.311
 S           1.37026210181432   -2.21064473534508    0.92087811610275
O           1.14093031877605   -2.47799997155779   -0.49754301418469
O           2.59031074045319   -1.51180132729359    1.19398303243269
O           0.20148316006757   -1.52931850278659    1.49960908392413
O           1.43897250070463   -3.63863536851851    1.60986747918481
H           0.86627096962961   -4.17611431277396    1.06983438381567
H          -1.12574549904471   -0.97451344439970    0.72773569957611
O          -1.92326479415351   -0.55550740055040    0.32116748806349
H          -2.67564888326530   -1.05394111316590    0.64220484479105
O           1.26991022681501    0.85615453200625    1.26879938200194
H           2.17450760990046    0.71561382349452    1.56556247416367
H           0.82099460745182    0.01128499866251    1.50480928016269
O          -1.26993308829047    2.03178860122770    1.11111276747322
H          -0.34606796826446    1.88283958600073    1.35111612018475
H          -1.62615531324202    1.14697143472374    0.92022616038292
O          -1.28781922027260    3.04875296547987   -1.34025099218496
H          -2.03041812200592    3.64484319868639   -1.44059789295322
H          -1.26346706239212    2.79363100127112   -0.38538353459606
O          -1.23061480423042    0.50436496017976   -2.13843764487209
H          -1.66512691874503    0.07722093053616   -1.38098755112930
H          -1.31166501744616    1.47307492374268   -1.98502829788553
H           0.23259512967632    0.22542991042186   -1.75898282714243
N           1.19480615420850    0.00196892105604   -1.32173428192972
H           1.21846253473205   -1.03754960594627   -1.10613978362377
H           1.28283180163940    0.49830055972875   -0.40588855754722
H           1.95358881545231    0.25378542507483   -1.94593193422304
