    26
        -50.46114344  Gyration_radius:  2.69235376034 Dipole_moment: 2.310
 S          -1.93662096540481   -1.49932083485332    1.27067807502800
O          -2.32479313761044   -0.11060976663813    1.50884545620371
O          -2.48280846472083   -2.06129559431318    0.07174865939629
O          -0.47181096678216   -1.62842741235908    1.32423212337393
O          -2.50036010519214   -2.31008837225052    2.51303379887416
H          -2.47816785594137   -1.67547286813267    3.22388593032416
H           0.64079965506044   -0.44190433880590    1.46343185512644
O           1.37017615359224    0.22496360364204    1.47794626485901
H           1.82469111617675    0.10060992388851    2.31193866286582
O           2.39252035433966   -0.47430035955605   -1.01423635039610
H           2.17446400290742   -0.26992867467047   -0.08851478992970
H           1.64659704236552   -0.99628427046866   -1.33748664861041
O          -0.19974448070852   -1.50628447359084   -1.28286580926752
H          -0.19142859285953   -1.67444442678414   -0.31189256061889
H          -0.90835199751076   -2.07544699185315   -1.59920719230133
O           2.16253936151439    1.95247535824703   -2.06385126039150
H           3.03094063868630    2.32986425365084   -2.20632072406198
H           2.30927722179647    1.01543517318581   -1.78479516844528
O           0.58708030959481    2.44853252226163    0.03033207541434
H          -0.61641188017796    1.61857489307494   -0.44469510854108
H           0.95582465598118    1.82129105405486    0.67497934354926
H           1.18828841225715    2.42023814499419   -0.74829258829765
N          -1.37005551666722    0.89109347608474   -0.70872218719749
H          -0.90793436658700    0.04338752251981   -1.10960033771435
H          -2.04708354148549    1.27702164564582   -1.35794725723927
H          -1.84762704255298    0.58032081303012    0.18737573799813
