    26
        -50.44995591  Gyration_radius:  2.54496789819 Dipole_moment: 4.065
 S           2.02018570082780   -0.83226550641543    0.07038086513744
O           1.31577627336935    0.21124800485033   -0.64250549310257
O           2.70766632486223   -1.79088543014948   -0.71097091052359
O           3.00624757444328   -0.15697714395269    1.04908570469379
O           1.01918284978903   -1.56643582408933    0.99459935973385
H           0.16954810443830   -1.05639200633938    1.19983988323626
H           2.58619465547596    0.65957046688343    1.44912806793241
O          -1.21570811955069   -0.42911027814394    1.50826334800892
H          -1.62006930684901   -0.93308351021604    2.21630522996878
O          -2.31920206194178    1.63555101959985   -1.46013286615385
H          -3.03568655373103    2.26099674474111   -1.34565687178245
H          -1.59899627917336    1.91816441739998   -0.86717104103764
O          -0.33191922433081    1.92135880791713    0.45527705242588
H          -0.80485329135908    1.27947014735335    1.00961959615516
H           0.25267556741311    1.36440580713266   -0.10586773665086
O           1.89354138633644    2.01152008525582    1.94989236481835
H           2.45602374095944    2.74871523760394    1.70370534332710
H           1.04297078875186    2.13132304226373    1.46554544327176
O          -2.35384844995330   -0.99649414467848   -0.68300938545965
H          -2.44430300752451   -0.12281565818630   -1.10781857558753
H          -1.62192183578651   -1.45398179405499   -1.16836468818149
H          -1.72536859256362   -0.68018400217295    0.64709675001475
N          -0.11878013125435   -1.99619584337551   -1.82169270348182
H           0.39885398229668   -2.63116501121945   -1.22526564904854
H           0.40522315924998   -1.12698057441452   -1.81736955220896
H          -0.08343328451265   -2.36935707386425   -2.76291351570861
