    26
        -50.46982691  Gyration_radius:  2.47158233161 Dipole_moment: 4.723
 S           0.47510498258336   -0.94342132209306   -1.38871487836254
O           0.35215055641834    0.50859853213636   -1.53929021195961
O           1.82893713617684   -1.39979858300125   -1.56532177257011
O          -0.05686530480195   -1.33390092785294   -0.06233121577752
O          -0.42585086768689   -1.62426726550919   -2.44815496282995
O          -1.97834805421495    1.51905563923263   -1.11627368485006
H          -2.14691127308094    2.21518721078333   -1.75250499566992
H          -1.05483696613523    1.19209608297927   -1.29881925400967
O           2.90399061409004    0.80789986139649   -0.66294373081552
H           2.13011841889198    1.28459653739165   -0.99509273728067
H           2.83981246382323   -0.04286000130962   -1.14605164025439
O          -1.60802545668497    0.31072573662927    1.34878572062151
H          -1.87595694874889    0.97184195105702    0.69606167831908
H          -1.07989168117038   -0.34457803767443    0.84452511644407
O           0.28961087001038    1.08903467874036    2.99691937072241
H           0.01669559773930    0.86754329683757    3.88825339359764
H          -0.49391116698851    0.90055326890681    2.41522146110127
O          -2.73223430051432   -1.06141163492334   -1.37352682113669
H          -2.62715833841118   -1.40334332354229   -0.48088075848112
H          -2.65965689988269   -0.08703849202838   -1.30326340018718
H          -1.35975567863138   -1.47637810468383   -2.14091651652108
N           1.86979385516089   -0.39592105337731    1.44201166756558
H           2.49515230499836   -1.05803734366635    1.88890284885856
H           2.39478825493100    0.18665728391635    0.71959379895842
H           1.11779760983274   -0.90441837810509    0.88957825649518
H           1.38545027226226    0.22158437782970    2.14423328800919
