    26
        -50.45931446  Gyration_radius:  2.52696368763 Dipole_moment: 5.176
 S           0.34937726479477   -1.81702058075158    0.80384931289822
O          -0.31018108806941   -2.45282467717223   -0.33950534328700
O           1.51342988273149   -1.06769137241118    0.40018794193485
O          -0.60202059059972   -1.07051003832831    1.60823021673284
O           0.87272139140758   -2.99508192553274    1.72667057597118
H           0.08530051788046   -3.32812933430518    2.14668930560790
H          -1.52239100804405   -0.50880559775449    0.32955467433321
O          -2.04645245477168   -0.15252044624025   -0.41838804487267
H          -2.43129897217133   -0.92315488093283   -0.84021182823815
O          -1.57454723076114    1.45843844026742    2.08764393770414
H          -1.16838619402779    0.58183606581752    2.17425257691569
H          -2.11194046098930    1.40284791822382    1.29142735796476
O           0.52989532935750    3.08319322699093    1.63788151115746
H           0.17632558961275    3.96384589251591    1.50747728402163
H          -0.22634118445942    2.51657052761387    1.90391599698032
O           1.53013574900522    1.56425537899194   -0.37018614861764
H           1.63028831775197    0.69322755136378    0.04740823120918
H           1.26989456125440    2.17173787142014    0.35049545179871
O          -0.27954448445726    0.95893136279205   -2.14287769967404
H           0.38159041719999    1.38040307854869   -1.52723946876990
H           0.45051250686468   -0.30262167939753   -2.32610963054385
H          -1.02940620645048    0.69909768354769   -1.56906894128726
N           1.01066333493334   -1.25133977502989   -2.20419831288253
H           1.27600179314505   -1.68465269118952   -3.08170618343441
H           0.40869961389772   -1.87661282041920   -1.58751824615263
H           1.81767359498570   -1.04341917863138   -1.60867453747618
