    26
        -50.45121230  Gyration_radius:  2.60789789626 Dipole_moment: 3.745
 S           1.06315286133679   -0.04323898330466   -0.25681108433626
O           0.89034769118100   -1.48807878904019   -0.33501355741460
O           0.63264231166035    0.60576643864129   -1.51973243110569
O           0.02159006841216    0.47369970939443    0.78874138342898
O           2.37576015371226    0.37832610979687    0.13920000751853
O          -1.48353444489165   -2.22530620390522   -0.90036565666776
H          -0.55727326104306   -1.98061614649600   -0.59707465411572
H          -1.40350504293919   -3.08557851494688   -1.31757613065066
O           3.30056275755958   -0.17625856492103    2.57818099418220
H           3.04618240497202   -0.00779552484851    1.64663127448552
H           3.88883206906679    0.54157719369017    2.81742378477314
O          -0.67800183779819    2.74415095594806   -0.60730956649343
H          -0.65414080575930    2.49998629905900    0.32342560077047
H          -0.05395091251707    2.11886052984701   -1.02797463146218
O          -2.84770837670906    1.74038184448805   -1.66946101615479
H          -2.09398076709727    2.20225221449056   -1.20338331443738
H          -3.13473775940485    2.33278299846764   -2.36690288164850
O          -1.47520221128309   -0.24327395725014   -2.46657625746005
H          -2.12499058357473    0.50046614721115   -2.16758790723796
H          -0.51232067397262    0.10902229217181   -2.13133299699636
H          -1.62900927965405   -1.07299635820896   -1.87274290500196
N           0.67454975325652   -1.24411512344260    2.53001335274217
H           0.13492085867690   -1.61506528394618    3.30060502693089
H           1.58083468490350   -0.92664447328363    2.87157229542896
H           0.84644607967839   -1.97664771498639    1.85075446581192
H           0.19253424222073   -0.16165708462072    1.59329681514518
