    26
        -50.45903933  Gyration_radius:  2.48472918911 Dipole_moment: 3.821
 S          -1.49153034127157   -0.94534559259628    0.61654819919591
O          -0.15989229371102   -1.51531519978522    0.49556753237608
O          -1.51163794716696    0.18572794424276    1.53417239156976
O          -2.11544826061182   -0.64815090991959   -0.65623449848505
O          -2.36964980934298   -2.08530101017433    1.28295323522091
H          -3.26413867437877   -1.80309973578134    1.11835225311784
H          -1.43187204893256    1.26304154326059   -1.11852374933313
O          -0.92446376811656    1.79430064951726   -0.49413855495174
H          -1.15772698455739    1.39924526242866    0.36529763980103
O           1.32223850890088   -0.19393182644070   -3.02966324997968
H           0.70225333015324   -0.91276424889606   -2.75761498384179
H           1.02017947575647    0.11234013148621   -3.88523721499464
O          -0.42223570489443   -2.02038596093835   -2.17831276103649
H          -1.16062086070574   -1.51171676317539   -1.79260357538345
H           0.01660600233431   -2.39446215026540   -1.40645393655580
O           1.92394499634516   -0.13620013536533    0.97045292625819
H           1.56099842347658    0.44330832320347    1.78604646168239
H           1.16695943179503   -0.78183958372074    0.78906975678832
O           1.66688144230724    1.40794910975925   -0.94833396175844
H           1.65369553500987    0.85247298315293   -1.76411348936989
H           0.73219685333141    1.69520638414206   -0.81404383852121
H           1.91034985025463    0.53607182855749    0.11782678140700
N           0.77113834005720    1.19969290590463    2.79389627265933
H          -0.16388114835546    0.87987799118286    2.52195903505322
H           0.80615027709800    2.20513512436243    2.68469154281245
H           0.91950537531230    0.97414294586794    3.76843979623775
