    26
        -50.47251600  Gyration_radius:  2.47010010361 Dipole_moment: 2.668
 S           0.77024581852357    0.27488953705789   -0.29906814456990
O           1.27606088710532    1.05012974712354   -1.54138873821612
O          -0.61556253645368   -0.14253898147920   -0.61274227362751
O           1.60877657992361   -0.90007664504877   -0.09387092068041
O           0.80661218198301    1.17035318264230    0.83115765261639
O          -1.75359658703068    2.28942629527339   -0.60906819911112
H          -1.11744317845705    2.86988679029694   -1.03075292314214
H          -1.39386659942704    1.38750063580481   -0.70278713587214
O           0.98641048531932   -1.16654080355064    2.46913187799623
H           1.30353821419265   -1.20940928800692    1.54058300791647
H           1.39392512214998   -0.37133992370409    2.82331175468414
O          -1.36887066768555    2.11141872525628    2.06627315080032
H          -1.78341576209179    2.39181791426364    1.22715400083291
H          -0.43041323613657    2.01062589938602    1.81646615913564
O           1.75397845162622   -2.55243648192804   -2.15554658392497
H           2.68404537945634   -2.67170917434854   -2.35496497748143
H           1.71871572372201   -2.03422958962148   -1.32209308004252
O           0.23879851318093   -0.61322119236282   -3.18556536627094
H           0.97323225740063    0.49180850623746   -2.32186368919555
H           0.78090620111979   -1.41824525372447   -3.03029621889321
H          -0.49604149544287   -0.68138214408100   -2.56191456201393
N          -1.50119926582812   -0.48154365042668    1.83050932264483
H          -1.31615448392373   -0.47921307749770    0.79277478010057
H          -1.60115640649336    0.55822809109170    2.08602847937119
H          -2.31097183927980   -1.03813679060083    2.08098158712686
H          -0.60655370772657   -0.84606232813932    2.25755101989450
