    26
        -50.44995593  Gyration_radius:  2.54500319842 Dipole_moment: 4.067
 S           1.33061426346362    1.62536072140740    0.60652613281580
O          -0.02573733444027    1.19653415818155    0.87091912293994
O           1.50678838708844    2.95783741911170    0.16416897177939
O           2.16189515313411    1.38964846870513    1.88702875677057
O           1.96204036630141    0.66687238221296   -0.43151676926214
H           1.50167109333032   -0.22934507771355   -0.52608795560445
H           1.88129870929985    0.53332221166421    2.32419251766069
O           0.83192133332168   -1.59263894635602   -0.84260580831187
H           1.44315550820659   -2.10933810158597   -1.37005092571407
O           1.29587828240670   -0.78043580382278    3.02422129358714
H           0.50570398028049   -1.08500907339047    2.51882114174591
H           0.98698618018718   -0.54468379930856    3.90138160592087
O          -2.90609896808745   -1.26020998948430   -0.38570106645799
H          -2.28769155631278   -1.27132145676319    0.36770499050956
H          -3.43586119723062   -2.05583344810494   -0.32295739987170
O          -0.74480513704855   -1.27194171595352    1.35439102477623
H          -0.21165626099889   -1.68217867758689    0.65409774800301
H          -0.64395074948955   -0.30699849977719    1.19431675132296
O          -1.03534773335509   -0.73200764339854   -2.32293046337162
H           0.08512037723371   -1.28452489767821   -1.48442882381058
H          -1.82637780811560   -0.86950838677513   -1.76851509006395
H          -0.86329030069753    0.24294657694161   -2.30377329188208
N          -0.44606594667270    1.86951503053364   -1.90234231583150
H           0.54044893775490    2.08690648375664   -1.98217065721744
H          -0.64723391067751    1.86887161929336   -0.90755146988207
H          -0.95940563883102    2.63816043581077   -2.31713805050213
