    26
        -50.45249224  Gyration_radius:  2.61937196359 Dipole_moment: 6.272
 S           1.00480636962079    2.01250535444170    1.63027181345430
O          -0.12904888340827    1.16896249045471    1.31277671354948
O           0.87450305321005    2.89782513628536    2.74116702808221
O           2.14875388185582    0.92905725713990    2.08146842596083
O           1.55201107305538    2.61631841416959    0.40932955239884
H           1.30711402642487    1.57723901119784   -0.57125545630230
H           2.64628962851200    1.43573860160001    2.71537846978621
O          -1.49150139303621   -1.84800075245546    0.95292004547503
H          -1.80959913156118   -2.03443745727937    1.83638162203598
O           1.15566877363256   -1.24232075430579    0.61467939855073
H           0.21589903690826   -1.41763156864368    0.83834464461768
H           1.47124704774988   -0.63736499284127    1.30033405122673
O          -1.22311358691487    0.02463037084473   -2.38584905092457
H          -1.03875204651625   -0.91935569882017   -2.15158879376877
H          -1.77013157388153    0.01304974169607   -3.17156964237292
O          -0.59118175872003   -2.42206758763227   -1.55137018370904
H          -1.09352025501574   -2.44725346979136   -0.71929860723993
H           0.32847062737963   -2.49491998074905   -1.28126738641777
O          -2.39257851294598    0.46884323692840    0.15130351463711
H          -1.91853659562882   -0.98474968537211    0.68324230922369
H          -1.67609367955341    0.91146124098819    0.64612867703245
H          -2.11622727212330    0.49241067933509   -0.77674792287770
N           1.17279364342624    0.69337434586005   -1.20407502296006
H           0.27038827559875    0.71926588491925   -1.69998594999425
H           1.16410935426413   -0.13180419999203   -0.53459095233371
H           1.93822990767860    0.61922440203082   -1.86612729715070
