    26
        -50.45931450  Gyration_radius:  2.52694568593 Dipole_moment: 5.151
 S           0.50171235386793   -0.34495055844420   -1.92311784753125
O           1.48153779610944    0.74268411114310   -1.86516729335877
O           0.81551694235388   -1.39697532855641   -0.98807991463164
O          -0.85433277422297    0.16616493114400   -1.82608067436486
O           0.62684362564795   -0.97980322325776   -3.37049785070351
H           0.19955661996578   -0.34638479726626   -3.93938071996620
H          -0.51465315586304    1.37602314275719   -0.72156030610444
O          -0.32627978382076    2.06678236532910   -0.05205163077725
H           0.27664090820827    2.67380987267400   -0.48560717623690
O          -0.02397294088292   -1.51690342089437    1.62039865355476
H           0.16772860113115   -1.63063173245553    0.67520088260859
H          -0.99478291549490   -1.59950912337392    1.70239191223188
O          -2.73236122683327   -1.46793913433088    1.68198630353290
H          -3.24256358462713   -1.22003778931630    2.45393396842183
H          -2.89569448604894   -0.77485089040981    1.00619566857063
O          -2.94163886886865    0.56410692184196   -0.07805452647083
H          -2.38558483195388    0.27711617914959   -0.81924509186536
H          -2.49714270590542    1.34026946451484    0.27666748815395
O           1.01017071995061    0.84879126460825    1.96398632356953
H           0.44815980791286    1.38997794696391    1.37225214924983
H           0.54797131371358   -0.03259328102972    2.02225848763366
H           2.09470404786479    0.40485364617503    1.07758478456231
N           2.71606094979083   -0.02668107980914    0.26761802324521
H           2.37364287826828    0.41404868209664   -0.63901876884037
H           2.43543189881359   -1.00702673732659    0.17050489239276
H           3.71332882082843    0.07965856812584    0.41688226307588
