    26
        -50.44238272  Gyration_radius:  2.57130517709 Dipole_moment: 6.700
 S          -0.18120693565463    0.61238930482066    2.38455883137193
O           0.66383406456682   -0.32582602031728    1.68123296317158
O          -0.35588056845195    0.40761159051706    3.77340815803637
O           0.33169299740226    2.04156489526712    2.07099651313462
O          -1.58640810540731    0.60070136542098    1.72091182257301
H          -1.48680216724665    0.73434668975019    0.73766649997699
H           1.16722217521878    1.94592633529662    1.50824647620673
O          -1.40172408541015    0.90941577116398   -0.85289139562324
H          -2.26337002180174    1.19909841144333   -1.15819177056516
O           0.98626152044618    1.68541947538096   -1.81399054682634
H           0.95194355662921    2.57743013988469   -2.16269878572451
H           0.09325929695043    1.47813973992081   -1.46146410988641
O           2.30615726106835    1.43349545121374    0.57632085587939
H           1.97605466259464    1.53770621046932   -0.33576561067477
H           2.08859707084446    0.52218192035130    0.83339568418473
O           1.47912717100172   -1.05875037157221   -2.24334587786537
H           1.45954672231172   -0.09578422586439   -2.14640047996008
H           1.92163059318209   -1.24924314901382   -3.07137775189887
O          -1.13527186977689   -1.50916416447654   -1.51762102630858
H          -0.19916741824680   -1.54019069219267   -1.78528090989737
H          -1.17732211893361   -1.96814641708125   -0.63550639738288
H          -1.31879829303170   -0.08596703442688   -1.14197009486745
N          -1.12563872539454   -2.44325179271241    0.98575412009543
H          -0.86016471901783   -3.38759399474871    1.23594935102688
H          -1.95112863321790   -2.20248050469269    1.52072189744096
H          -0.38244340063335   -1.81902892380254    1.29734157438223
