    26
        -50.43216875  Gyration_radius:  2.71723128896 Dipole_moment: 4.908
 S          -2.04632343383409   -0.46963487146209   -1.72937229877843
O          -1.22716497690169   -0.22063506431936   -2.87283433092287
O          -3.41072570511216   -0.08018770508448   -1.78062454682537
O          -2.00821197942470   -2.04499358473903   -1.42813755132163
O          -1.37178659996562    0.06833942466272   -0.47418640425378
H          -0.45273975378397   -0.49678561240438   -0.43179536362150
H          -2.82652740273284   -2.39290581455625   -1.77217558312009
O           0.62647182240711   -1.36572655090402   -0.37080653798765
H           0.25313142289961   -2.23728880104137   -0.52228997211954
O           0.20607878137950    1.98554563591206   -2.17799184285816
H          -0.39765073749355    2.29954417884357   -1.50245215782608
H          -0.23147126719972    1.23075622172711   -2.60731051076226
O           2.36591194988232    0.79596127626822   -1.01862439067420
H           1.99404452651718   -0.09250126973616   -1.05426352102773
H           1.71981152632057    1.35945383377996   -1.48595793245296
O           2.54303310661395    1.16256762491521    1.60884739069492
H           3.47780052063025    1.22139043345022    1.80967069497947
H           2.48283491883444    1.12292952208543    0.62243973631090
O           1.13729132526021   -1.05706613445188    2.06802268580042
H           1.73024292169595   -0.27089225244679    2.02235300442790
H           0.27359609187420   -0.69058561745701    2.37562483063114
H           0.88846882638858   -1.30442089235916    0.64689255407973
N          -1.21764885871935    0.20154277447646    2.53754920966679
H          -0.99368365047323    1.12148461340545    2.89637624647092
H          -2.00084958268720   -0.15753107048940    3.06819911850255
H          -1.51393380231595    0.31163967202033    1.57284748295286
