    26
        -50.45249217  Gyration_radius:  2.61877855269 Dipole_moment: 6.271
 S          -1.00464101243136    2.21318632946463    1.34205874119291
O          -1.06988213057288    1.38864638225983    0.15306309762495
O          -1.93553198002682    3.28896842920809    1.44742041238573
O          -1.42506337804736    1.16798961734494    2.53248398128765
O           0.38836123736757    2.55815187693844    1.65062631129495
H           1.09512463682680    1.37687719487897    1.19590651144024
H          -1.84326932514080    1.75316859224950    3.15600411564254
O          -1.54968100411720   -1.56392533091046   -1.30064135095404
H          -2.49749420443968   -1.56853419889522   -1.43489253785095
O           0.93124129346158   -2.62440307790101   -0.92996948110551
H           0.83403616086730   -2.69546125304285    0.02377334267445
H           0.02823364906163   -2.47511583165118   -1.25760225741069
O           2.06833534855273   -0.33571024667279   -1.67292287920146
H           1.70259609553226   -1.23105998385915   -1.46212147053818
H           2.71908457753496   -0.45800754018880   -2.36446368841063
O          -0.59848894223053   -1.17301446009106    1.23436129019319
H          -1.08678620049429   -0.47360367139895    1.69052880886258
H          -1.02755492481415   -1.25497550336070    0.35489295610047
O          -0.51902377301705    0.61473529279263   -2.30842589506122
H          -1.21089510959884   -0.74240993325648   -1.75941906555558
H          -0.77549399664216    1.10034843411916   -1.50069374152691
H           0.43277991655911    0.45727314837509   -2.22192835847558
N           1.51582384087766    0.40344560415811    0.92203074972183
H           0.71639946015480   -0.28793780802850    1.03283484838281
H           2.28826319080428    0.17185402118648    1.53791497125656
H           1.82352657396630    0.38951390628665   -0.06081940198277
