    26
        -50.43216426  Gyration_radius:  2.71719317624 Dipole_moment: 4.975
 S           2.44866214204987    1.06733218265708    0.52795382561520
O           2.32294503205041    2.02879243019262   -0.51996864055303
O           3.73079220278096    0.51871007625938    0.79549918322407
O           1.92949955988340    1.74384322334599    1.88609965386384
O           1.41304045853670   -0.03754110536411    0.34760314974922
H           0.48035438592083    0.49941375858689    0.39799914284326
H           2.70833958385338    1.87362030602517    2.42064870519014
O          -0.66806938855065    1.25024383101390    0.62707215983685
H          -0.47201282595331    1.78005476121117    1.40342219677688
O          -2.66859792217157   -1.23062370481683   -1.32486163890947
H          -2.16190079359949   -0.46913560765215   -1.70082145311027
H          -3.54734162005174   -1.16835991197518   -1.70106146476247
O          -1.36599429929404    0.94843622566817   -2.11686689436758
H          -1.23210289960844    1.39535820497462   -1.27344372046920
H          -0.46842087616348    0.81382405720721   -2.47629636086015
O           1.29472319940910    0.59786360928969   -2.59614355323049
H           1.68858032276278    1.25151270775139   -1.99377179924665
H           1.57988685552959   -0.26305418265418   -2.28481933299603
O          -2.17452539643512   -0.66583532612487    1.23570535597778
H          -1.49716302461221   -1.34808638796649    1.45938881813844
H          -1.35246050990207    0.50540231757916    0.91360265382209
H          -2.48951783676142   -0.92681448982006    0.33894631407703
N          -0.10166977276897   -2.39986958437736    1.46070557871770
H          -0.27249462936318   -3.12814528838690    0.77819867240113
H           0.24703805293053   -2.83827777279910    2.30341055503510
H           0.62841000951057   -1.79866433981692    1.09179890317244
