    26
        -50.44875165  Gyration_radius:  2.69419412545 Dipole_moment: 7.566
 S           0.52932974894442   -0.95431242698623   -2.68910335733106
O           1.64927662606821   -0.50337777815152   -1.89245969375789
O           0.79101815422514   -1.94537116902960   -3.66224663264770
O          -0.57841466269877   -1.41336680304524   -1.68748597177945
O          -0.14410694062882    0.26031991448662   -3.36081679231107
H          -0.30876091399191    0.98658534589892   -2.68959661174289
H          -0.05931465474474   -1.80542508925920   -0.89436073649954
O          -0.51917282703495    2.15205126194458   -1.62886336171069
H          -0.43319339543921    3.00202047381107   -2.06395247629162
O           0.93695677333024   -2.06789262178977    0.21354893954995
H           1.70207814522412   -1.75891106374743   -0.28871003352426
H           0.70655640231893   -1.32684446773640    0.83329132359914
O          -1.97718671252154    0.38845777166827   -0.03535501763459
H          -1.73858727131358    1.17337007211252   -0.54801719992234
H          -1.83186591646163   -0.35907414997311   -0.63076264803181
O           0.16692784502271    0.07468536124236    1.54788088882744
H          -0.68612821173929    0.21350370247616    1.07610730895589
H          -0.06791893143780   -0.05067645305019    2.49352636608938
O           1.56104563384576    1.59996416265862   -0.23130533590785
H           1.20521900643227    1.16304959713508    0.56425194844627
H           1.82492313222887    0.87373492489100   -0.82788031802973
H           0.30136700625035    2.04152676768124   -1.04454404107701
N          -0.65868210199601   -0.37733266361061    4.11697665789918
H          -0.44556493933902   -1.33342651161926    4.37298729095557
H          -1.66492138108044   -0.26549465178682    4.13652777778347
H          -0.26087962346070    0.23223650377550    4.82036172609357
