    26
        -50.44402420  Gyration_radius:  2.71202544819 Dipole_moment: 2.660
 S           1.52572034737087    0.90328170587825    0.94807258392265
O           0.51538312003778    0.47046661338758    1.88472371193414
O           2.06293176354277   -0.09386830929240    0.09213871207334
O           0.93390244756646    2.08149131241216    0.12858141067081
O           2.66095865870629    1.61475731193082    1.71104694174431
H           2.19245029998954    2.21687824127841    2.34148635397483
H           0.20606482650026    1.74163017932810   -0.49631839149399
O          -1.00559342607800    1.18307254800095   -1.24363620072100
H          -1.58519246093501    1.87695603875765   -1.56531758951433
O          -2.26177806018989   -2.31706289344474   -0.18133024087542
H          -3.13434906964295   -2.61697744149687   -0.43903229297085
H          -1.78886887901770   -2.09053725818922   -1.02460787177110
O          -1.00061480622101   -1.48374260182037   -2.35153948448587
H          -0.91165632754002   -0.53825152568069   -2.17897021069240
H          -0.09455545105866   -1.85582185162800   -2.21884544878972
O           0.81594316133891    2.83769660737647    3.07650228176407
H           0.40147678123472    1.96748759353621    2.94502781511871
H           0.34905877990313    3.45679682042609    2.50962930230719
O          -1.98682796286140    0.11312336675298    0.84793137337122
H          -1.17787410380579    0.10841213769763    1.38477502850976
H          -1.48031209430874    0.75356169782297   -0.44542776725781
H          -2.14199106941831   -0.82862875386006    0.58971178858853
N           1.48227012962767   -2.33042918485806   -1.70370504519788
H           1.73992011065632   -1.56200547201389   -1.08845200585159
H           2.22437501903308   -2.43794192437408   -2.38395684566658
H           1.45915823727388   -3.17034495805275   -1.13848791796719
