    26
        -50.44506461  Gyration_radius:  2.49526259441 Dipole_moment: 5.633
 S           1.59218713223358   -1.75209289139284   -0.25545682351563
O           1.24932030820775   -1.74158410515736    1.13850901936534
O           2.42225431890515   -2.78565459176003   -0.75021221026049
O           0.25855018830527   -1.70572746537007   -1.07749531744535
O           2.22875075345768   -0.38345370370046   -0.63021574124314
H           1.90996607389109    0.33540361403880   -0.01097984449635
H          -0.52255573812266   -1.87421706506108   -0.47076285673551
O           1.49903276420515    1.50395990791901    0.99722756226509
H           2.28754969115349    1.83071251110248    1.43346198896958
O          -2.19114719832985    0.54389340981255    1.10031185124252
H          -2.95250627356896    1.03839062980691    1.40518021227937
H          -1.69839788229373    1.14718904140051    0.46597624310428
O          -1.87483917743889   -1.99422235780271    0.32185797862138
H          -2.04526780585456   -1.08864260334858    0.65995670495937
H          -2.59470296140315   -2.21027795403069   -0.27433357220136
O          -0.81477527896870    2.09325642341556   -0.45862520146459
H           0.01864434036951    2.16188968365022    0.02724143951686
H          -0.56935078502882    1.66898747814970   -1.31686813034840
O           0.07615668733982    0.13090375970254    2.64250758947914
H          -0.81704717352828    0.19959164455773    2.26425571963798
H           0.44286993214464   -0.71001499593107    2.31125713066379
H           0.95763419471806    1.02813611740815    1.70763666550182
N           0.14294983046386    0.80774094773176   -2.63704561022975
H           1.10857641209380    1.09828384053585   -2.73398109759499
H          -0.27433434229764    0.80821456516599   -3.55932119163884
H           0.16048199934778   -0.15066582084868   -2.30008251843345
