    26
        -50.44307978  Gyration_radius:  2.50797106269 Dipole_moment: 2.707
 S           1.61672516643795   -0.72258156148812   -1.44232007752256
O           0.26389376063021   -1.07124148646487   -1.71893752618584
O           2.22828183101829    0.31337698014719   -2.20202219381519
O           1.80477520590492   -0.43403870083586    0.05147132171852
O           2.48958894687010   -2.03128075271373   -1.64614501429835
H           3.35575846703445   -1.73376588700320   -1.91493999532551
H           1.10682974556802   -0.94403089232276    0.64302394978487
O           0.16050405808872   -1.55681673582974    1.56411583695408
H           0.63278615251562   -1.86958524243739    2.33834900151207
O          -2.59967240367661    0.56927250936422    0.01510815384039
H          -2.42108621181643   -0.38585556952352   -0.17216278609227
H          -3.55164214056348    0.66025833195652    0.07012891054278
O          -1.89751738550565   -1.96662479562879   -0.36098321613145
H          -1.38018156372343   -2.15315866775138    0.43188030618663
H          -1.23301149114127   -1.77402773244451   -1.04165895889298
O           1.03051657662031    2.07044136523738    1.36886580868559
H           0.62159488924086    2.20729774651341    0.47607446323602
H           1.74921917203854    1.45391273561432    1.20817407816173
O          -0.99715258439628    0.58337925970382    2.20746799327458
H          -1.64033529906037    0.71537029002589    1.48173061235610
H          -0.35880350625295   -0.70345408584110    1.87080807714995
H          -0.27405809155098    1.23620494438445    2.03452321259319
N          -0.07008282222709    1.95319688125315   -1.07445598543035
H          -0.28526845680743    2.77249775362557   -1.62882770340434
H          -0.93159834543634    1.42893784248128   -0.95762109491277
H           0.57993633020163    1.38231548000907   -1.60164716396102
