    26
        -50.46932518  Gyration_radius:  2.52736547974 Dipole_moment: 4.997
 S          -0.71192107894584   -0.47329067517591   -0.54058100191534
O          -0.56893782216414   -1.16724371078789    0.74175437761479
O          -1.96090162512083    0.25215257992479   -0.61752391033523
O           0.43526814691595    0.43745070343903   -0.73451634064056
O          -0.69251652474925   -1.50573622512403   -1.67353762026042
O          -2.30437668400094    2.81303459413815   -1.08614396123959
H          -2.33023178832062    1.83291307835235   -0.97634073579199
H          -2.20225845657850    2.96720997104987   -2.02665989144483
O           2.92268681089366   -0.59828081640830   -0.66141725311818
H           2.89072163841038   -1.03946430310939    0.19619718596843
H           2.08690031117567   -0.10108000015142   -0.72946515561561
O          -1.63978856021702    0.74731812939808    2.17468054506834
H          -1.23197548141820   -0.04882180807958    1.75996612601696
H          -2.53740000122810    0.75824652104133    1.83057610302922
O           1.68820591015408   -2.40126839928246    1.23871620855754
H           1.58751803274364   -2.88835659607133    2.05728574786171
H           0.83693349350207   -1.92481620105832    1.09953156492201
O           1.54345295282581   -2.72727830924572   -1.49545427052120
H           2.19727826328226   -1.99308435027225   -1.50545795817270
H           1.56932707601557   -3.03414140456150   -0.57494917473304
H           0.18383855332029   -2.02016556411326   -1.64618794899005
N          -0.33146651777371    2.46286122533437    0.65178546218201
H          -1.05652699949332    2.89055409149441    0.02754382269278
H           0.13267385558326    1.69870433956930    0.05984351914343
H           0.33043752494120    3.13852157768727    1.01706699339514
H          -0.83694102975206    1.92406154201497    1.41328757631118
