    26
        -50.44875171  Gyration_radius:  2.69421488207 Dipole_moment: 7.565
 S          -1.95988155113487   -1.96468983022386    0.84877508171058
O          -1.21502795515264   -2.22355077643287   -0.36383059570862
O          -2.40409331322940   -3.08835268017783    1.58214736740890
O          -1.07608915254105   -1.02108961716390    1.72601701263321
O          -3.16209769431308   -1.05301029882085    0.52716893685629
H          -2.86948468658051   -0.26559029801253   -0.02000066318701
H          -0.11340606877619   -1.31274386180118    1.52528827530568
O          -2.40475491684161    0.95225298835935   -0.93049483455433
H          -3.11395778639002    1.19618284236579   -1.52772078528933
O           1.39787677455454    0.52060458506337   -0.45102220806232
H           0.76443666786627    1.04037155116461    0.09497270636064
H           2.25858249184965    0.98895205474560   -0.38052871916878
O           1.16894880857720   -1.75938237548319    0.85780061050774
H           1.39730941404148   -0.93563575578132    0.35218849489918
H           0.73272153161488   -2.34206406586723    0.22273702225018
O          -0.54005592703213    1.65256658334421    1.02062503095482
H          -0.75935615424955    0.89708143886922    1.58237006668222
H          -1.26640706855080    1.71752933931614    0.38496647762554
O          -0.55301925374325   -0.33786553216161   -2.15183646350794
H          -0.76039382257567   -1.16887492661951   -1.68345655520255
H          -1.68637049425637    0.51611422352393   -1.49676456943697
H           0.27177319781245   -0.01290017695802   -1.74622984994878
N           3.74684860311924    1.86685020882617   -0.05557250564482
H           3.54140528763776    2.67406233196215    0.52029206559016
H           4.21517658201228    2.18917993785838   -0.89306945323656
H           4.38931649626977    1.27400211011038    0.45517806416456
