    26
        -50.44677680  Gyration_radius:  2.54283718735 Dipole_moment: 3.962
 S           2.25291492165598   -0.43889822359993   -0.63222236809196
O           1.01979323044885   -0.02686258572734   -1.25725581433131
O           3.18007705292797   -1.15131968790271   -1.42350272569856
O           2.92534268437682    0.82795584004163   -0.03132425330130
O           1.90263946876272   -1.29270362021489    0.61507275930567
H           1.15779837190889   -0.85958134443517    1.13350191762614
H           2.21090280546325    1.41351651211378    0.32326147364075
O           0.03557364909700   -0.14959711161863    1.96565226449531
H           0.01626336871122   -0.49533465323865    2.85976440141195
O          -2.90008107826243    0.99936540684790   -0.53228814729112
H          -3.39930973570834    0.85243116024968   -1.33624292567886
H          -2.08374412535362    1.48089668273065   -0.80373328836327
O          -0.59835105027553    2.14111389765835   -1.26865412599451
H          -0.17829695565945    2.55834428534115   -0.50894708005107
H          -0.05363342038306    1.35641108571218   -1.44946447207929
O           0.98068320470165    2.18875342141966    1.11066191478029
H           1.29652051697064    2.69916124109284    1.85916847436096
H           0.50105956928419    1.41007521503854    1.47037860300688
O          -1.98198552706509   -1.10959653890539    0.84075023336569
H          -2.41387395410328   -0.35730651717374    0.37761900836693
H          -1.57032292205271   -1.66665053691384    0.13235811580112
H          -0.83343169905484   -0.52220316877148    1.50535688098160
N          -0.56925897459260   -2.40152197615220   -1.05707438444675
H          -0.02591300598601   -1.58162010007623   -1.32031711901795
H          -0.95445051741562   -2.80269833000540   -1.90301669790832
H           0.08308411162202   -3.07213036349137   -0.66950266490395
