    26
        -50.46254540  Gyration_radius:  2.67463296462 Dipole_moment: 2.238
 S           0.67143951042953    2.32439878235160    1.16012710909271
O           0.60297408858846    2.60399181815639   -0.27414362343200
O          -0.55133528572627    1.73211102878049    1.65652709817194
O           1.86777383246930    1.58089587344928    1.50788632622817
O           0.80910765621208    3.73569910904725    1.87170067743429
H           1.69496304192325    3.97669022110327    1.62172240341363
H           1.68624488353003    0.04493985391114    1.15849835496589
O           1.61339929728810   -0.92310436568471    0.94415592288626
H           2.31145911242926   -1.34729935736105    1.44633470304487
O          -0.94227773652767   -1.99822322203315    1.00004323922259
H          -0.05340173933216   -1.62337491656896    1.12399269208474
H          -1.52363443372977   -1.23493264937271    0.85669402280738
O          -0.68223074161170   -3.14089505568556   -1.37309268652506
H          -0.87881172051512   -2.78668296096079   -0.46899926244054
H          -0.49576789706112   -4.07311004855947   -1.25964068167934
O          -2.25426614037422    0.35217948059789    0.31503204618495
H          -1.62211280098610    0.89264756991507    0.86469755866717
H          -3.13338943990540    0.60757198407705    0.59727084748133
O           1.17825941038659   -1.25879141638502   -1.72515513093407
H           1.49131601497363   -1.17937212547149   -0.80353649482551
H           0.56595368882671   -2.02876325424016   -1.72826254433418
H           0.21159890419306   -0.07440259891435   -1.79815580562967
N          -0.48541096827348    0.74763886220961   -1.72069710053916
H          -0.77356462465622    1.06612618391382   -2.63909362736363
H          -0.00680485999633    1.53853009148674   -1.18297168459399
H          -1.30148106260032    0.46553111220999   -1.15093437940441
