    26
        -50.45315581  Gyration_radius:  2.46427833972 Dipole_moment: 6.333
 S           0.83155655713547   -1.80588240583140    0.43144799356896
O           1.82723847956058   -0.75164585925547    0.16344215007889
O           0.78996013666076   -2.23143975305149    1.79561499016777
O          -0.57395631502289   -1.09038273290329    0.12714246406336
O           0.90828893656367   -2.84112978700875   -0.59047821637908
H           1.21210469307441   -2.03714402781547   -1.86243982365306
H          -0.78842088186597   -0.63374405280633    0.99185263627880
O          -0.68473749650363   -0.04878174330511    2.47726212546566
H          -0.22841038725164   -0.86117114081130    2.74443168534618
O          -0.90720003637150    0.13477365210064   -2.22098875477081
H          -0.90646230918586   -0.30971534931972   -1.34497497538192
H          -1.80617281777485    0.08306970507567   -2.55019731647262
O          -0.43727490724019    2.34108619385311   -0.40931657205988
H          -1.24913280743367    2.17413168799137    0.10439589560200
H          -0.49123674387606    1.76005933080084   -1.17689740605559
O          -2.53285054903610    1.61594897748708    1.23076212171130
H          -2.05773026870151    0.97621326500098    1.78333828699343
H          -2.81387414697121    2.32060573841302    1.81713848326045
O           1.22081140477452    1.46448971713928    1.57539101307693
H           0.75054507691401    1.95295317072622    0.87018421340991
H           0.04753356642440    0.61570497308670    2.30700292432890
H           1.65111231599001    0.71667040442926    1.12375668723651
N           1.50497601122152   -1.10270162147971   -2.31701364421374
H           1.85586928688643   -0.66828251161492   -1.40487031052188
H           0.66467145251179   -0.58742688062349   -2.62795831114058
H           2.21279174953447   -1.18625893037655   -3.03802831995960
