    26
        -50.45651691  Gyration_radius:  2.4873588889 Dipole_moment: 4.661
 S           0.67724364954761   -1.30878259012226   -1.10178627416458
O           0.65998366655706   -1.09981419902352    0.35870494393036
O           0.44148521537546   -2.67147985743598   -1.46942289813259
O          -0.53322824672866   -0.49227173158245   -1.68889014465127
O           1.88935403011450   -0.70390990188337   -1.66172553893088
H           2.62689743979500    0.02290951814973   -0.57421708502912
H          -0.40496008220174    0.46610220275132   -1.52077286239164
O          -0.53576143541732    2.06270379655366   -0.93406773713029
H          -1.36695451425487    2.38544606232342   -1.28535501259781
O           1.48572555899645    2.57650767414394    0.94521474848810
H           1.05668189865430    2.77374029163824    0.10105927788720
H           0.78333419901954    2.19311471269212    1.49089626531230
O          -2.03567557843690   -2.59491278021682   -0.48050378685704
H          -2.49876215972051   -2.55492498476469   -1.32030178125094
H          -1.09228313255579   -2.68145712396406   -0.72157732265285
O          -2.96588763256411   -0.57277574905760    1.04778516109026
H          -3.32453175522811   -1.04473385666150    1.80092767889113
H          -2.58637372685118   -1.26783327263061    0.46352265456905
O          -0.74652400007523    0.86746347892162    1.36573114766159
H          -0.73670300402182    1.67990850261621   -0.03097016101589
H          -1.65442335553546    0.49413217306779    1.38487610704544
H          -0.21172106866899    0.09199782495902    1.07490492459398
N           2.79182557839717    0.30422803059532    0.46071253130082
H           2.45640604595055    1.28597820916379    0.64487316979091
H           3.73896196118042    0.14039625057326    0.78168718913749
H           2.08589041884311   -0.35173270087478    0.86869480512168
