    26
        -50.44557235  Gyration_radius:  2.50177109402 Dipole_moment: 3.538
 S           1.58847977225681    0.01609489086310   -1.34563232896245
O           1.17592038107124   -0.40741358744734   -2.65239821993743
O           2.84084664753763    0.66322155309237   -1.19894140385333
O           0.46819583851284    0.95764826201389   -0.78255018478212
O           1.55815258147867   -1.19144370443573   -0.37846898556301
H           0.62945572729796   -1.58331326541542   -0.33167201666971
H          -0.37953745080438    0.66849300771121   -1.20170455313168
O          -0.84704445311834   -2.04425913049749   -0.20363721435488
H          -0.89601044833504   -2.92628871366959    0.16878574894958
O          -3.06499911303028    1.12228788563499   -0.39150058583820
H          -2.64082484710893    0.77575039583859   -1.18869705065538
H          -3.98123765751596    1.29646504671017   -0.61050712686029
O          -1.40978576159612   -0.25606369960910   -2.17668652932362
H          -1.45615849613118   -1.07118140050564   -1.64948976637151
H          -0.62160752702237   -0.36479107071916   -2.74055023715980
O           0.17724373915067    1.30947342883250    2.04859184659607
H           0.11509556417664    1.80753405521938    1.22894235604034
H           1.10719751504352    0.97698085146059    2.06472829553150
O          -1.75776712567264   -0.41246820907904    1.50082929307147
H          -1.03020605925051    0.17431359314069    1.82761439071526
H          -2.33606518036648    0.17523960668169    0.98557259881393
H          -1.21908611609280   -1.40872405248669    0.52094892203274
N           2.74590161124205    0.51598950230172    1.71847908208324
H           2.86750019034363    0.69445360030962    0.72454378374277
H           2.87459865331639   -0.47956063792065    1.85138783004331
H           3.49174203462651    0.99156178197547    2.21201204582621
