    26
        -50.45651710  Gyration_radius:  2.48739565449 Dipole_moment: 4.650
 S           1.42983585516636   -0.04229634602856    1.15714637725787
O           1.09427270416791    0.76081109221983   -0.03437337360708
O           2.02909743779066    0.73521511734629    2.19836174451273
O           0.06801693434349   -0.56717334811021    1.74582094008673
O           2.18183852502519   -1.23012904615231    0.74251187252224
H           2.24052908807725   -1.28064470467886   -0.75839375613526
H          -0.37012227497720   -1.16055093473337    1.09847789380413
O          -1.43031280962060   -1.83354063449271   -0.05696747626121
H          -2.24257427018525   -1.99840916623206    0.42414704544864
O          -2.29163501289449    2.06949866129115    0.82355604849747
H          -2.44478617935381    2.99962952187799    0.65049462660385
H          -1.51458186369471    2.04302087620579    1.42688456718725
O          -0.31000687316090   -1.66016193263014   -2.62598947717437
H          -0.75931442333761   -0.80696105473598   -2.53417612491867
H          -0.65198238520601   -2.19427409804738   -1.89570030469453
O          -0.20005004917047    2.16408236225392    2.52842942162098
H          -0.48249601421688    1.75779624556331    3.35088686664562
H           0.66058740566894    1.74594919795455    2.32825311989875
O          -1.28374561774240    0.53930524269635   -1.11157831161052
H          -1.51723514167065   -0.92112255916011   -0.45978053735516
H          -1.83429482246586    1.11440843150933   -0.53695126828795
H          -0.37800682191141    0.70232279592891   -0.75812928071827
N           2.07576834561496   -0.86190951978903   -1.74539804025852
H           1.79081108765377    0.09002564602130   -1.41625434497161
H           1.23808054610848   -1.30115680568551   -2.20953658937057
H           2.90230661995593   -0.86373501041120   -2.33174163871548
