    26
        -50.47417029  Gyration_radius:  2.42090018741 Dipole_moment: 1.994
 S           0.67386175477962    1.51825566780000    1.11801830684610
O           1.09326453101813    1.72793561164297   -0.25494191391901
O          -0.74617837248030    1.77628107098652    1.30057366201919
O           1.09303041825894    0.22466828524958    1.63075726909899
O           1.41560954630846    2.59346969158314    2.01262691760283
H           0.81509274584568    3.32912457613998    1.96621719570109
H           1.48978679992194   -1.12995653583347    0.80976506009628
O           1.65442293218620   -1.95166576423777    0.28785947686641
H           2.29835226580569   -2.45696058174615    0.78614922648775
O           1.55435991828864   -0.30402958077455   -1.91070116329363
H           1.80900528003426   -1.00672769054195   -1.29045545276398
H           1.52349114187379    0.51127801394109   -1.36534293591147
O          -1.33249343015980   -0.73617388649368    2.20878445515423
H          -0.39153321514011   -0.48293223216549    2.19358513606216
H          -1.78673881892303    0.09962961288119    2.05883508951204
O          -1.46646469719443    1.88027566231274   -1.20609440265361
H          -1.38346419735019    1.86521366546225   -0.22646504871570
H          -0.60823411175455    2.22108850539050   -1.48454755082530
O          -1.08990650065214   -2.29850778800440    0.06106620175149
H          -1.19540953549054   -1.32669935840911   -1.16026906133496
H          -0.12898345141150   -2.42868729542886    0.13269408320502
H          -1.33586864607092   -1.81847155314367    0.88542064546505
N          -1.05322442648268   -0.63413252518332   -1.96306846677179
H          -1.52088786425600   -0.94917445845934   -2.80518834660906
H           0.00139546572218   -0.55241470311418   -2.10444123874986
H          -1.38228552267629    0.32931359015382   -1.68083714431558
