    26
        -50.44096517  Gyration_radius:  2.57288457242 Dipole_moment: 5.620
 S           0.67501339014995   -1.86459285380041    1.05193820131280
O           0.15437117222658   -1.91267621484706   -0.28244236171412
O           1.59354764355200   -0.82032647373813    1.35345193661236
O          -0.47522606906534   -1.91050120688499    2.06370934137641
O           1.38248431710373   -3.23167040497523    1.34282993655374
H           0.80285273667021   -3.91235501338625    1.00859346479251
H          -1.04843500845408   -1.05464524110345    1.96503849118722
O          -1.85288889278649    0.14388291348595    1.66231943202390
H          -2.70833251693662    0.10462621137482    2.09586795922034
O          -1.46849838115967    1.64717492917405   -2.21629299747654
H          -2.02820020398699    2.42412451796358   -2.22654529945011
H          -0.58412139630899    1.95179053302315   -1.86641050003480
O           0.80587623697173    2.39941283636345   -1.16950900190039
H           0.70260369967684    2.35988238865784   -0.20121687180711
H           1.40110106670947    1.65166086852883   -1.38486007993312
O           0.48704968696254    1.75707201920879    1.49056998393428
H           1.06365645342752    0.98312137467888    1.53448169869891
H          -0.40568204579650    1.42968002131812    1.65044442208918
O          -2.12211017610416   -0.44499394598684   -0.77034059078543
H          -2.02591294676219   -0.02112702407819    0.65512451080534
H          -1.92459335684491    0.32792212483958   -1.36303350882547
H          -1.35745574601426   -1.03610376294027   -0.84548538599114
N           2.16413762776102    0.02174237212594   -1.43105575297611
H           3.04771678219603   -0.18781831884872   -1.87813826477714
H           1.46807755896737   -0.61715263442155   -1.79667506876607
H           2.25296837780617   -0.18812998576561   -0.44236369408241
