    26
        -50.46317510  Gyration_radius:  2.47250435767 Dipole_moment: 5.493
 S          -0.74770915795202    0.93689293173779   -0.00205481331155
O          -1.99907680068194    0.81199608981864    0.73345661243794
O          -0.83648982940526    1.70291487615378   -1.21417207863236
O           0.22621513189903    1.67255843708819    0.99585780167301
O          -0.14435962838573   -0.38777751147959   -0.21558062359276
O          -1.35085682044974   -2.72664603659245    0.00522878003045
H          -0.91398706361810   -1.87303641451251   -0.21261098322953
H          -0.82253005067188   -3.41115018189640   -0.40761056533304
O           0.84663285830495   -0.52858544742894    2.44335394440410
H           1.27189483265164   -0.96909281679892    1.70075191323332
H           0.67539508375163    0.37530027767585    2.11820809339901
O           0.45437765900253   -0.80676882136897   -2.78975453207176
H          -0.37460103476988   -0.61090863663999   -3.23089203584852
H           0.28309698092848   -0.67413543874116   -1.83587409335449
O           1.41432351272368    1.74129581100262   -2.62986243999557
H           1.36944402326177    0.80836860001309   -2.90835434195652
H           0.52525943348409    1.91148652193279   -2.25681199693267
O           2.43964149684918    1.85624821383110   -0.26090893392065
H           1.10175630587878    1.76974339670268    0.50082461919414
H           2.15800569834961    1.78339115907802   -1.22395841933771
H           2.82848898420011    2.72819760755433   -0.16697721296206
N          -1.70057968407368   -1.24621988995045    2.20532515575627
H          -0.70189415828983   -1.09035140860777    2.50054852540255
H          -2.33116535344501   -1.36646630618260    2.98990970657660
H          -1.94106810709976   -0.36076564123931    1.61644088147289
H          -1.73021432244769   -2.04648937114332    1.54551704689824
