    26
        -50.44557250  Gyration_radius:  2.50183322956 Dipole_moment: 3.542
 S           1.89856197082037    0.10886402025009   -0.84757504245335
O           1.87648650064351   -0.24934326370620   -2.23626909940793
O           3.04280602407319    0.76389294805979   -0.32752663151610
O           0.64036734632804    1.00364019523589   -0.57406621652631
O           1.63494602586496   -1.14923826111763    0.01391121933861
H           0.74054348077072   -1.55485985042926   -0.21821516408305
H          -0.04950146610405    0.72656208327265   -1.22621162989448
O          -0.70026132861769   -2.04115123109898   -0.52812815680626
H          -0.82575114924698   -2.94219472136607   -0.22570750921810
O          -2.86644641459869    1.10049707517160   -1.17649734914315
H          -3.69174682466283    1.26816959685314   -1.63318772740905
H          -2.22769502606517    0.80347970700344   -1.83932754148904
O          -0.74274802972222   -0.15793589929074   -2.49266115819740
H          -0.91108572659556   -1.00062492417927   -2.03874856448049
H           0.17364376268183   -0.22584068559785   -2.81914494385288
O          -0.43446768067387    1.20088657711220    2.07739411963980
H           0.46337574729641    0.87986229401822    2.33521824658558
H          -0.28082926564304    1.74213151633847    1.29816348809523
O          -2.09305299483861   -0.51435580739812    0.92990120135952
H          -2.52109968987927    0.09247580595369    0.30220312512483
H          -1.27618577697953   -1.44987279374348    0.09331269986827
H          -1.50135754175732    0.06359376258657    1.47420957390726
N           2.14581833355286    0.45968666426791    2.43747095186906
H           2.53353237290292    0.69251503478476    1.52643510565995
H           2.26056835339337   -0.53963289916342    2.55385630561600
H           2.71157901703488    0.91879305617313    3.14119069740647
