    26
        -50.44557240  Gyration_radius:  2.50179613855 Dipole_moment: 3.540
 S           1.19355970258446    1.03447598621061   -1.35673517712369
O           0.52436500677158    1.22009991426583   -2.61170258376916
O           2.35677634156810    1.79602282004852   -1.08150163366451
O           0.14305585105729    1.29524170826481   -0.22220010596672
O           1.54768605130849   -0.46113541147864   -1.17720238302846
H           0.71293351667976   -1.02744914524920   -1.20439750826392
H          -0.74125093513266    1.06146705617444   -0.59801785341974
O          -0.62012397063393   -1.81749124180593   -1.11756418095631
H          -0.46946067256192   -2.75332218307452   -1.26130047530702
O          -3.17864374528786    0.43166449681701    0.72075914710458
H          -2.92580125734753    0.62613235287796   -0.19237894374753
H          -4.13479547818476    0.47199208199919    0.76502708004245
O          -1.86254427241333    0.52115985772176   -1.74618533806018
H          -1.67965036653646   -0.43311499910335   -1.72615253632245
H          -1.23087438377765    0.88563331060347   -2.39358444222441
O           0.51975141562383    0.14601338513584    2.37820199351754
H           0.19799365439087    0.95110606681755    1.96339993327012
H           1.45751230945702    0.07166057602411    2.07696860395728
O          -1.27022053410266   -1.48205371337836    1.30359758569090
H          -2.02379230762378   -0.86870773038279    1.26724404250882
H          -0.87483995458347   -1.72033241165956   -0.12103808600245
H          -0.56013198352190   -0.97981457356958    1.77683769981620
N           3.00262525459215    0.22774691185090    1.29867622026287
H           3.78530569062157    0.55866563595588    1.85001720241545
H           2.85306665146541    0.89061807310895    0.54182279296861
H           3.27749841558507   -0.64627881417578    0.86740894630017
