    26
        -50.44557251  Gyration_radius:  2.50185407252 Dipole_moment: 3.543
 S           1.64960814333102    0.47630344839430   -1.17776347128588
O           1.34950331152888    0.35980323410894   -2.57549660766989
O           2.82473217088576    1.16435019197804   -0.78471549074214
O           0.41598080629958    1.15563503819416   -0.48837743836545
O           1.68387306675357   -0.93242084381096   -0.53837941819362
H           0.79559215896600   -1.39601232426031   -0.65800850269974
H          -0.37673329819670    0.91375524541811   -1.02786720099475
O          -0.63482277697801   -1.99007711322698   -0.75692765086102
H          -0.61853521038638   -2.93785461658568   -0.61390790601067
O          -3.13410521178324    0.93631620172642   -0.33776829158984
H          -4.05081838197072    1.07837195098066   -0.57704278695589
H          -2.63583426439422    0.83476818115687   -1.16055737916413
O          -1.26037297260176    0.18190081995716   -2.27318839285880
H          -1.25649548154250   -0.73975622799767   -1.96490688783530
H          -0.43646039500356    0.28001690942779   -2.78554686861865
O          -0.05884110334471    0.76953853232190    2.31344671653845
H           0.89645577378830    0.51840458140489    2.31725931488994
H          -0.12502435696561    1.45024126614048    1.63814452089037
O          -1.78776178617496   -0.91002679467181    1.21823672191737
H          -1.10422857715365   -1.58583065262081    0.06989274311825
H          -1.13836746058684   -0.36708532253618    1.73195225728532
H          -2.39093751134919   -0.26039580800856    0.81869980307794
N           2.58772195303100    0.28967376921250    1.99386845507995
H           3.25672258936492    0.68595509720824    2.64308072341115
H           2.74490354259167    0.71854456952212    1.08508137262540
H           2.80424527189291   -0.69411933343103    1.89079165502932
