    26
        -50.46200624  Gyration_radius:  2.66493221293 Dipole_moment: 3.973
 S          -1.51235214048226   -1.14647826471366    0.18806422578083
O          -1.46635749498604    0.16918292451753   -0.45350847468249
O          -1.61341160673824   -2.23382511412789   -0.74596864928999
O          -0.37644007692829   -1.29076017162128    1.10637752225729
O          -2.81300132293167   -1.17209991947290    1.08076897950629
H          -2.72882728895913   -0.42705542015704    1.68650688669699
H           0.92620797473117   -1.49914142319606    0.24284435579469
O          -1.39540455604538    1.08849642665992    1.96982372728773
H          -1.44412099266784    0.93199711725664    0.99883987072195
O           1.89029736086136    2.42045427029571    0.14264570764431
H           2.44847442817819    3.15934958782464   -0.10259723133289
H           1.16681513498520    2.79576179177089    0.69198001875169
O           0.39906075156429   -3.42202952805190   -1.95724568944877
H           0.21339060014592   -3.30916125545074   -2.89148774163348
H          -0.41780640594648   -3.12857981156722   -1.49113901765857
O          -0.17758794382680    3.45990423030212    1.51857190551840
H          -0.63693974248565    2.65814737014956    1.84539053257512
H          -0.81737853161641    3.92495747006628    0.97642232982199
O           0.86923541233290    0.69402312526302   -1.65466679351221
H          -0.73964463707994    0.44626049806850    2.26769554746627
H          -0.05799267072813    0.58322446354257   -1.35850215494480
H           1.24878065268725    1.38425429151017   -1.06975488267065
N           1.63209537274726   -1.52832825108749   -0.54680751323543
H           1.46542748462978   -0.61043401589387   -1.08810050943424
H           1.35597503306825   -2.33766945005486   -1.15521496343966
H           2.58150521549515   -1.61045092157852   -0.20093796827058
