    26
        -50.46152689  Gyration_radius:  2.59950749545 Dipole_moment: 7.383
 S          -0.61760472307340    0.12551525132755   -0.36632171274574
O          -1.89971647297600   -0.45041429464331   -0.68401567224677
O           0.44836901275027   -1.00584609451117   -0.23458277643276
O          -0.06417106690307    0.95969322077327   -1.43950948840892
O          -0.62148184427812    0.85609905018011    0.90164540697910
O           1.42941627752997    3.23670615252649   -1.95727771485812
H           0.71083948030500    2.59052588875945   -1.85393945876559
H           1.07875558375730    3.94496896768368   -2.49834304927935
O           1.74938097836026    1.36112971874025    1.78331972898196
H           0.81199310002915    1.11744805731660    1.55286518462353
H           1.70046216195798    2.24020156963969    2.16402546810350
O          -2.27626187935132   -0.82528428324997    2.13738009613727
H          -1.70806100984480   -0.10083385748995    1.81309106633480
H          -2.96783546354947   -0.91048579788711    1.47504125700455
O          -2.31120084410463   -3.07249402905419   -0.79545780869902
H          -2.09021527691826   -3.36225572383296   -1.68125671362873
H          -2.26542210673347   -2.09301258739954   -0.81122950627939
O          -0.61449448709005   -2.72878944202484    1.27626717468127
H          -1.21416361272720   -3.13959932008163    0.62258587822786
H           0.08450321241316   -1.72713597217961    0.40127712482796
H          -1.19810918119225   -2.14684375267270    1.81514450172927
N           2.40911275795463    1.01732036632088   -0.73096561911544
H           2.71455492496209    1.87806973676810   -1.19317977172114
H           2.99928124601275    0.21976761820652   -0.94260529217594
H           2.31303961172547    1.16554691803019    0.32008168543350
H           1.39902963096182    0.85000265876950   -1.07404000871817
