    26
        -50.46906535  Gyration_radius:  2.46804586341 Dipole_moment: 4.289
 S           1.64673821920320   -0.99961233609122    0.99615708945907
O           1.67399808152189   -0.50013550943249   -0.38142421984913
O           0.90336279946602   -0.11252954395456    1.86038329638770
O           1.26046491157191   -2.38903026821179    1.07450042180333
O           3.15535308532856   -0.94901097712213    1.49604078892817
H           3.44608408250151   -1.82976472099043    1.28422301223660
H          -0.32159348883745   -2.15170858392724    0.79964776409578
O          -1.26473475584841   -1.99054434163298    0.56797671693723
H          -1.77899871569476   -2.60754262815574    1.09204878515834
O          -0.29747886311823   -1.48591802568351   -2.00192727580794
H           0.52704123391305   -1.23819016276292   -1.55013308530028
H          -0.84350888437990   -1.87730143097901   -1.30582882854561
O          -1.43804109644842    0.90433465080952   -2.21592580141118
H          -1.09722883921758   -0.01134389699916   -2.36002041269716
H          -0.24581040070847    1.52812985373454   -1.61080754084041
O          -0.32045212116944    2.13523325321700    1.51870601707686
H          -0.35069213602717    2.60520249819168    2.35285887153018
H           0.14612511820213    1.27900519250090    1.70142330030944
O          -2.32848116263737    0.56496229274174    0.26794612056279
H          -1.77649283783187    1.15680464627912    0.79801528659609
H          -1.99602280710222    0.82832790209233   -1.40647697694363
H          -1.99611180548196   -0.33283888534986    0.43531028190586
N           0.62983142338669    1.83090209273901   -1.01027587586077
H           0.29305656627880    2.24070239370844   -0.12495430705463
H           1.23828349615283    2.46668063266363   -1.51225451312203
H           1.13530890696814    0.93518589260872   -0.76520892555899
