    26
        -50.44075670  Gyration_radius:  2.56990078079 Dipole_moment: 5.621
 S           2.23744502411881   -0.17941410051703   -0.73573759210915
O           1.10438948946828   -0.94672675242223   -0.28107202112681
O           3.44538640801883   -0.87948247698195   -0.96006646195673
O           1.80253102083837    0.63648686093399   -1.98824213899543
O           2.48811518430320    0.96472566147286    0.28274361322679
H           1.61604985909927    1.44046513107784    0.31869756361789
H           1.00470175433517    0.23030089136492   -2.43727611502733
O          -1.81577461641861    0.66893490694952   -0.97772686874536
H          -2.72384403637163    0.93443897086735   -0.82350876433767
O           0.15805099269566    2.11497310663019    0.12918881801749
H           0.29121251576229    2.79635946756483   -0.53315293108558
H          -0.55633329386321    1.53003540642821   -0.21807271911545
O          -0.37686700140263   -0.12098718509064   -3.12907856374905
H          -1.00433812631260    0.12079775267327   -2.41698707434675
H          -0.56238882435952    0.44609415118092   -3.88046278724299
O          -1.80606368723585   -1.46736423923118    2.58222372986684
H          -0.99260294366673   -0.90359054528707    2.64858810505904
H          -1.62059589575733   -2.27064763835510    3.07047798377136
O          -1.52494712055966   -1.70049833747544   -0.08302240878908
H          -1.74049180952667   -0.27632332247075   -0.60181565719593
H          -0.55989232965007   -1.70591041749909   -0.17379227604946
H          -1.71311083597856   -1.67572864383125    0.88252262553817
N           0.48555979204829   -0.07071675062644    2.43337749301153
H           0.78781265929659   -0.46005659282879    1.54195078185707
H           1.26721036784597   -0.14083779310607    3.07271970736153
H           0.30878546329102    0.91467244858410    2.27752394856334
