    26
        -50.43728947  Gyration_radius:  2.86603253016 Dipole_moment: 4.557
 S           1.35018047910897   -0.81051958994539    2.63570124522781
O           0.85497277652496   -0.37400415434443    3.90261787433423
O           0.44619666377474   -1.43772867344475    1.73034522401239
O           2.11082496246467    0.33014216327358    1.96339874755416
O           2.50433550150287   -1.85571702212515    2.93254792834815
H           2.89148588654470   -1.60906480338193    3.76998733214720
H           1.97346699633243    0.40523739570014    0.92859898554789
O           1.78536923345250    0.66521962061902   -0.49067357107346
H           2.45474177083327    1.30029896131964   -0.75328252793223
O          -1.94217375621080    0.01520447572905   -1.15213622723133
H          -1.28051730463755   -0.70379998422008   -1.09073973989922
H          -2.13364365536010    0.09953668017959   -2.10537705044343
O          -0.85202419377203    1.01152171077601    2.28437657919736
H          -1.34326487204132    0.24916385292151    1.96439276782487
H          -0.35184468548071    0.70737052371555    3.05174686644561
O           0.20414166033335   -1.65334778730524   -0.98899606344679
H           0.20258923138963   -1.81355866646408   -0.03349391089308
H           0.88978480670134   -0.98720784945032   -1.11871738957994
O          -0.38458658114705    1.91780704798125   -0.25402172193703
H          -0.53926643766080    1.86611705330032    0.70453581342015
H           0.88840968696494    1.19940644724171   -0.44041041178982
H          -1.05633511263885    1.28825923672560   -0.63877301544419
N          -2.17261859111446    0.07167986810530   -3.93269522532941
H          -1.86432973405707    0.93343574240464   -4.36445698137530
H          -3.09417466606683   -0.14765596246667   -4.28849671649070
H          -1.54172005573972   -0.66779627684965   -4.21597882119950
