    26
        -50.46317507  Gyration_radius:  2.47261662358 Dipole_moment: 5.496
 S           0.68852117883024    0.94982685156203    0.24723021318538
O           0.51990423296126    1.59427697656898    1.54289466627958
O          -0.19545107158115    1.80549808042092   -0.73875925979569
O           2.03920121575607    0.92625287933797   -0.24143106124957
O           0.06843367497747   -0.38433245919979    0.25381464457586
O           2.34068854445798   -0.43481537423231   -2.50622406355414
H           2.45269709421271    0.14877779391360   -1.72818460585622
H           2.19140878810915   -1.31352318129980   -2.11190206884966
O           1.76692687296898   -2.27717595877721   -0.57829056914073
H           1.10848836015742   -1.60768206351674   -0.30426133467369
H           2.53257619876651   -2.13103685391373   -0.01915529403993
O          -2.55352413861161    0.67253034465025   -0.04532887674923
H          -2.30016233617225   -0.19705965106696   -0.37065250524329
H          -1.83732899683849    1.26017719536188   -0.35158772782364
O          -0.63560860988781   -1.78962554603522    2.37626886444214
H          -0.79195740921697   -2.70283124538801    2.13177287914972
H          -0.26543460919879   -1.35038104440048    1.57818448508771
O           0.05276124555028    0.65824267116704   -3.00487318391735
H           0.91887235159195    0.15570237887214   -2.90952974127612
H          -0.08859069876526    1.37232243256109   -1.64537915477122
H           0.19532540078521    1.29383373385068   -3.70919982710912
N          -1.67174847497442    0.67475502503091    2.46116213526259
H          -0.72156875669108    1.12510743822885    2.17334466468757
H          -2.11936249482380    1.17768093876928    3.21900445829703
H          -2.23574804418768    0.68366159104073    1.57200663734557
H          -1.45931952816229   -0.31018296350700    2.70907562574234
