    26
        -50.44631983  Gyration_radius:  2.51063269945 Dipole_moment: 2.830
 S           1.72832720529396    0.90648979084776   -0.16438549033658
O           1.00420277394245    0.12894141635374   -1.13535383007123
O           3.11459593622737    1.09125239987468   -0.36121165859210
O           1.04029308099511    2.28069329750207   -0.01499751045345
O           1.49377028246844    0.24398427407381    1.23422433335796
H           0.62840694869416   -0.27410821341656    1.20352713111514
H           0.07264096227046    2.11127995833821    0.21762329565521
O          -0.79080394002121   -0.89899541400004    1.25844571950079
H          -0.93146774612741   -1.47973396506657    2.00765058748629
O          -1.61566124672545    0.44590046898603   -1.83047729785696
H          -1.90205824393467    1.13646866695041   -1.22664458938798
H          -0.64964101780590    0.38390396505879   -1.73453151441739
O          -1.30472055795922    1.72592051989991    0.85900047067333
H          -1.32882116336047    0.75668224291467    0.98143418212663
H          -1.06730873773674    2.07897971789318    1.73591711679646
O           0.37284476350971    2.24767762925470    2.92923279307437
H           0.85660018542369    3.07001676827620    2.82974297126873
H           0.95292699883001    1.54741655139900    2.59967954453578
O          -1.64714201105938   -2.06316576574758   -0.80835307452964
H          -1.12663242521364   -1.41380619939887    0.42177564947822
H          -1.86877528775848   -1.25992314974532   -1.32109503717800
H          -0.84384646422000   -2.42935337364471   -1.25394790942599
N           0.70858664885288   -2.63795145286327   -1.99167993985112
H           1.00452811268947   -1.68067941008743   -1.81169630766136
H           0.67614979784162   -2.76211639966126   -2.99586405895161
H           1.42300515491291   -3.25577433392290   -1.62801557635827
