    26
        -50.44677684  Gyration_radius:  2.54319676453 Dipole_moment: 3.965
 S           0.98643513606493   -1.76056435883269   -1.26592849892547
O           0.20754688365039   -0.56943639905178   -1.50212027076458
O           0.85375156593452   -2.82105067855259   -2.18848011402666
O           2.47789690985175   -1.33582898440004   -1.15084675566539
O           0.64659400813058   -2.28842827731435    0.15293928197338
H           0.61914127037732   -1.52592983741009    0.80803497102018
H           2.51216760225912   -0.46453712291768   -0.68307431794699
O           0.63501396188843   -0.34061322604145    1.83275149963767
H           0.71980600898301   -0.67618063039059    2.72693323189621
O           0.53975246069194    2.11041895101597   -1.34067112675276
H           1.36660296596015    2.05908096381494   -0.84937118589293
H           0.32516697199785    1.18702434640393   -1.55632881684415
O           2.48296842873549    0.84483677713505    0.32610269273885
H           3.29647970806048    0.93221751416743    0.82719146026830
H           1.78469414261317    0.55181559498790    0.95256329789551
O          -1.46916223354947    2.72851428274550    0.31007710415295
H          -2.18757699696759    3.04120670513176   -0.24062516250497
H          -0.71062290730877    2.56642543689552   -0.29862360237074
O          -1.74096886335865    0.41516258461579    1.63245100006687
H          -1.70420777381503    1.30713147776483    1.21993528578464
H          -2.08679869627433   -0.19562528127993    0.93323854387686
H          -0.35324946827715    0.01246901293508    1.76157979826281
N          -2.32902531944469   -1.28161148534165   -0.37783873491794
H          -1.52635481987411   -1.01245675225576   -0.94360781295711
H          -3.15245815401624   -1.23211344328719   -0.96481686470486
H          -2.19359279227772   -2.25192716051726   -0.12146490328000
