    26
        -50.44822570  Gyration_radius:  2.46571550072 Dipole_moment: 5.210
 S           0.22383821907147    1.55278147724763    1.53906316181586
O          -0.26105781681341    1.43613785424924    0.17640424745063
O           0.94865533559286    2.72946388775559    1.84798413339672
O          -0.98147527878991    1.36942245327827    2.48317806774431
O           1.12661338945327    0.34154106750324    1.86271274954993
H           0.91517879315492   -0.49901051817104    1.34897976900964
H          -1.75384530825492    0.99803542462263    1.94427659963369
O           0.79178813821988   -1.83239854558845    0.55097321143624
H           1.36622054132542   -2.48294707987613    0.95950233391006
O          -2.71916288166510    0.50429746955079    0.82083002120712
H          -2.28106012758072    1.04652569655765    0.15376690885704
H          -2.51717686328437   -0.42203714620946    0.56523872957461
O          -1.87970342295253   -1.93225339287629    0.01503701284252
H          -0.91615290924781   -1.92461203861120    0.17146262326984
H          -2.22648581754345   -2.71723497591283    0.44191643532887
O           2.36081823355995    1.59268839601482   -0.52921408599724
H           1.40408844446110    1.69821916869891   -0.43555741452565
H           2.74130785098654    2.06947158673449    0.21154745029486
O           1.94549507248274   -0.95038412120629   -1.51768916600648
H           2.32108154859747   -0.09775162911207   -1.23622691619230
H           1.27945242585700   -1.52354567703038   -0.30863663742354
H           1.12474184752512   -0.71236803301343   -2.01747589863826
N          -0.50719995409156   -0.17726050821761   -2.29040357136225
H          -0.50776219951322    0.52103638979776   -1.55201474250899
H          -1.21356372602432   -0.86430246193806   -2.05473949368495
H          -0.78463353451869    0.27648524570902   -3.15091555900714
