    26
        -50.44822552  Gyration_radius:  2.46580866934 Dipole_moment: 5.209
 S           0.90968020765839   -1.99324420714508    0.17550396355502
O           0.96454316578103   -0.71119938784849    0.85300622337423
O           2.13970863314239   -2.68046094625591    0.03331494059888
O          -0.14012486570493   -2.86136353217486    0.89798328267270
O           0.31076276415976   -1.79713919415800   -1.23503116632775
H          -0.32129129953608   -1.01781474366450   -1.32767093499264
H          -0.68222947953337   -2.26259664121804    1.50828870480153
O          -1.21906739847853    0.21184760467043   -1.66012583259928
H          -1.56108031568081    0.10332418765384   -2.54967616107282
O          -1.25034363809086   -1.08485649656490    2.36176072390915
H          -1.81450253812200   -0.49411346594394    1.81697110750753
H          -0.39148501078192   -0.64628738795974    2.39453199127392
O           2.65952123070497    0.01581715330139   -1.14575921748975
H           2.22019933532862   -0.15788281281358   -0.30193639659542
H           3.02045068853041   -0.82948859688494   -1.42125971290506
O          -2.53271646863667    0.60994706095229    0.69580780341579
H          -3.46799984836014    0.48964741598418    0.52391356641819
H          -2.07080972585793    0.51126459907612   -0.15846594562095
O           0.69600355665464    1.85885436694547   -1.74774015759424
H           1.49218214644677    1.29911620760364   -1.73541924474418
H          -0.46512340443502    0.91821434449569   -1.73055529094227
H           0.60698063437804    2.19216936321256   -0.81984220571004
N           0.26731652607240    2.16344566159526    0.88559513997626
H          -0.72035239015424    2.16489651481428    1.11156580288771
H           0.73937179235287    2.77853112071223    1.53532154369023
H           0.61040571223134    1.21937182156633    1.03991748251591
