    26
        -50.44647005  Gyration_radius:  2.48303320899 Dipole_moment: 5.864
 S           2.20701790867223    0.87748153841817   -0.08533025887766
O           1.19012676662374    1.57104609846055    0.66606693833379
O           3.56047376370875    1.21093046086689    0.15364425508398
O           2.00501531721939   -0.66036678330528    0.16188231964609
O           1.88137039202979    0.99796005304957   -1.58812552602892
H           0.88043513160675    1.16385948010003   -1.62862799295189
H           1.26840867053487   -0.84163941394613    0.81384484691764
O           0.10325079040517   -1.23427939184018    1.82751693345593
H           0.44934607728974   -1.75138977746429    2.55636445173853
O          -2.70567038789520    1.06588857567777    0.82418784570082
H          -2.47294507851387    0.27529045261713    0.31249552053202
H          -3.65336169472245    1.04283701391083    0.95939008845202
O          -1.42781136158246   -1.04824330963372   -0.49703091725809
H          -0.98234918794096   -1.26935847268517    0.33430772901960
H          -0.86437307054342   -1.46076875316925   -1.19720356464300
O          -0.62445833945792    1.37261710514485   -1.42817540161856
H          -1.00250303324440    0.51021989334016   -1.14554914443231
H          -0.63251594862864    1.93117460083320   -0.64302232587559
O          -0.61422292737968    1.10453149473064    2.59936021983419
H          -0.19890388329610   -0.34786852552922    2.21655019546689
H           0.08292508703869    1.52478126648031    2.06661340697426
H          -1.43827239373818    1.23662366809249    2.09589307247497
N           0.50495225883278   -1.80386521670148   -2.21178311662039
H           0.55445073022602   -1.13664600884753   -2.97257763262908
H           0.64613594191939   -2.72815188481927   -2.59998825360696
H           1.28347847081582   -1.60266416374594   -1.59070368908834
