    26
        -50.44403657  Gyration_radius:  2.53933876907 Dipole_moment: 3.666
 S           2.10318857718992    0.24446139445959    0.88120373749048
O           0.92036384307024    0.97008278604904    1.28055456388377
O           2.70372690808143   -0.59528946052251    1.84965521821713
O           1.71830254435582   -0.61106272709464   -0.37512793580378
O           3.11024812907643    1.22402613059457    0.26249968360301
H           2.54316280306961    1.92193669673307   -0.19781210287601
H           1.06164282236522   -1.35950976340359   -0.05631448557168
O           0.08831169273481   -2.30450155270696    0.46544068211992
H           0.56793531406863   -2.97538455656020    0.95627185834385
O          -1.62926093742245   -0.97150056904037   -1.55671104492180
H          -0.99812121293150   -0.33602287509634   -1.92051585032169
H          -1.11951753267296   -1.61006927429151   -1.04666936624272
O           0.55645124150906    0.67125161331124   -2.43421051153764
H           0.93632586612387    0.50005424260696   -3.29792559243570
H           1.06462544327786    0.14708791703996   -1.78533704543473
O           1.27804025267199    2.70632716251258   -0.72691469531392
H           0.77401694119382    2.42622616606326    0.05303515807351
H           0.90814662154540    2.20611917200079   -1.47631642198486
O          -0.99113356231970   -0.75439322647105    2.14284750885779
H          -0.34844153369157   -0.03097604554763    2.05760527686451
H          -1.82539142873060   -0.42351876222020    1.70587639931294
H          -0.41270898908542   -1.74073913131338    1.17557599062570
N          -3.07601209130813    0.11282392589193    0.70910744965965
H          -2.74750719630563   -0.22023249237206   -0.19836309999028
H          -3.20914220772464    1.11382657922066    0.64575293088510
H          -3.97725229832977   -0.31102337982399    0.88679169479168
