    26
        -50.44403657  Gyration_radius:  2.53935317285 Dipole_moment: 3.667
 S           1.84595894960339   -0.34459397089377   -1.31703223516389
O           1.84965507118055    0.01840964022729    0.08057197521072
O           2.40287076313602   -1.59997562881196   -1.65994311594599
O           0.35665600054345   -0.29106591909372   -1.80441220700770
O           2.45637371232177    0.80087275646071   -2.13666599494265
H           2.19133438851640    1.64181695621618   -1.64358809320619
H          -0.15422686792858   -1.07630701605038   -1.34033921073209
O          -0.79564875723688   -2.13644651657351   -0.58044343490408
H          -0.54369841127272   -2.97299521129137   -0.97761754775877
O          -1.01845482741020    1.97093120515435   -1.32835479261216
H          -0.56956723907316    1.15962209403047   -1.63543197003453
H          -1.48792640083999    2.33782344001138   -2.07974655761783
O           1.54983346654643    2.60038016252878   -0.56410674549037
H           0.59158318397963    2.64204994663559   -0.73341802846333
H           1.66926201358325    1.91950002056072    0.11630215896775
O          -2.41659608260915    0.15087841135096    0.39733079825001
H          -2.00692147651021    0.87173155586051   -0.09972033218808
H          -2.11887619964446   -0.67110656789632   -0.00697116734297
O           0.54627486131352   -1.86200471191290    1.54220637647848
H           1.19583301983129   -1.23451936615648    1.18446462184136
H          -0.02997677721960   -1.32806183670589    2.15802463061162
H          -0.29756287569484   -2.09446273112664    0.32690608099526
N          -1.10573551746424   -0.29370718186357    2.94426604718879
H          -1.68008518347459   -0.73114409371776    3.65294360668615
H          -1.71387358336132   -0.03108334991363    2.16738662202003
H          -0.71648522055820    0.55345791303589    3.33738851517973
