    26
        -50.44081608  Gyration_radius:  2.71401706272 Dipole_moment: 5.286
 S           0.90877515712581   -2.12141451519420    0.60847442620551
O           1.58538795651301   -1.02811246909256   -0.05033147023339
O           1.51264316826854   -3.39813030019386    0.51343167711972
O           0.66116245945816   -1.69953806602348    2.08018390879050
O          -0.54884666689616   -2.20565458655780    0.06802402863100
H          -1.01277138282902   -1.39419146103062    0.43146005664475
H           1.31068977177320   -0.91451882557633    2.32875137892078
O          -1.64655686908826   -0.05440513043535    0.99707225028320
H          -1.68445529537924   -0.16740274325805    1.94881055281609
O          -2.53715341986830   -0.80021384757610   -1.60490106457058
H          -2.00229834063782   -1.59545010170801   -1.51976952573377
H          -2.54170012365058   -0.39181261325415   -0.73008622155553
O           0.31243560641801    2.49331219516951   -1.89727796897384
H           1.13959536153417    2.35377818999180   -2.36149895511862
H          -0.36138332764296    1.98804343676276   -2.40277217566322
O          -1.46028945422647    1.02299560288673   -3.28398639832695
H          -2.20435104555329    1.46511511357417   -3.69517201309583
H          -1.84133448924355    0.31844683902361   -2.71819922179652
O           0.48295553687783    1.30072625814580    0.48237542485310
H          -0.89008615880246    0.58663527357862    0.81672097024969
H           0.96230168313336    0.49309891441312    0.18997802975224
H           0.38672746425318    1.84907021061758   -0.33071802928809
N           2.21680731965359    0.26780540124441    2.54194637567708
H           2.46901281280061    0.52513094884790    3.48658856419634
H           1.72949266062355    1.03807910236530    2.09183363969215
H           3.05323960541179    0.06860717325939    2.00906176046073
