    26
        -50.45068771  Gyration_radius:  2.61651440745 Dipole_moment: 5.736
 S           0.36699820171292    0.12209969841729   -2.81934724651773
O           1.71919670813222    0.43924870074326   -2.35416168375324
O           0.09040843190666   -1.26679890254926   -3.00007725147671
O          -0.61558360794651    0.77999536044082   -1.94046388930661
O           0.24209019647487    0.84063691817148   -4.22499193867668
H           0.69993367706272    1.66335606309499   -4.08328152914755
H          -0.98060787068609   -0.55898736913897   -1.10874837441159
O          -1.11211653378849   -1.37133085247923   -0.56177997318814
H          -1.05073703884303   -2.07675393833684   -1.21386167277216
O          -0.16987454121933    1.92172079158076    0.38424403655352
H          -0.40921133836145    1.69228275308828   -0.54125942331846
H          -0.80544137971914    1.42229630253558    0.93007343476100
O           2.00958222339474    0.65446604540747    0.11479546525377
H           1.98805974599997    0.56351754439535   -0.92218941810168
H           1.20115682433817    1.26181940415640    0.32902318659511
O          -2.09773429669852    0.23312541812637    1.42301991527320
H          -2.95189226735201    0.56800064253751    1.14425448203564
H          -1.86178100324778   -0.46826871396035    0.78993303265047
O           1.11099649213442   -1.49556726183220    0.98061433568377
H           0.31192994330044   -1.59093384552106    0.41997318694578
H           1.73039850548606   -0.31095990908029    0.49366866668325
H           0.77974764839781   -1.24476676448493    1.88648764635685
N           0.08907670037000   -0.56360253416591    3.26855734854676
H          -0.80880326079036   -0.22278190115424    2.93921608529757
H           0.60374625751607    0.22340913486037    3.64259489250382
H          -0.07953840757337   -1.21522279484330    4.02370666552868
