    26
        -50.45068772  Gyration_radius:  2.6164717034 Dipole_moment: 5.736
 S           1.88821837013934   -1.72106751430755   -1.25306722600620
O           2.66051085829741   -1.26647499099452   -0.09446177454322
O           1.09265486157637   -2.88737977983830   -1.04070052734305
O           1.10140220987578   -0.59450911853079   -1.78453177462357
O           2.97215121501250   -2.05354622308976   -2.35868263408261
H           3.61327686870619   -1.35945374850342   -2.24164376345291
H          -0.29561296022792   -1.07318671733856   -1.12386111834761
O          -1.10919452945724   -1.34258110852757   -0.63198415222934
H          -1.06729379054798   -2.30368523472570   -0.66571850617956
O           0.66965604008947    1.73404824279921   -0.64489674513411
H          -0.30560717477428    1.73654896049783   -0.65520997839955
H           0.91838219074799    0.98426110153921   -1.23001387087108
O          -2.03107345106196    1.21534187047715   -0.93694275733247
H          -1.88569699222362    0.25849077636964   -0.82870563038317
H          -2.24981912811398    1.34920694681640   -1.86088583586615
O           1.56760854103990    0.45057843635804    1.34913863447366
H           1.24150103807031    1.10490026476869    0.61874484732706
H           2.09091130232620   -0.27726239036697    0.81961710580104
O          -0.61211912888061   -0.59688943925993    1.92377278675258
H          -0.85967821220513   -0.97667036837377    1.05401736012582
H           0.67402170231541   -0.03397510831779    1.69684808397902
H          -1.20596866265396    0.19268283938252    2.05511306896340
N          -2.07703223985853    1.63794302787059    2.00271553080039
H          -2.94884287027809    1.62597557874126    2.51566084366114
H          -2.29238765147242    1.74725206402240    1.01657398121316
H          -1.54996843645245    2.44945162254833    2.29910405167109
