    26
        -50.46858412  Gyration_radius:  2.39991333909 Dipole_moment: 6.983
 S           0.81490064230423    1.36187139032773   -0.02904791353030
O           1.29893874142883    2.39474002846100   -0.89142346998897
O           1.04367219833725    0.00518250355346   -0.57783615294375
O           1.28866868518921    1.41017091108517    1.34756906214689
O          -0.75456009852644    1.47777749061781    0.07973416610164
O          -0.91361033043034   -1.80216376917510   -0.67239499242884
H          -0.45426605254984   -2.62180096730838   -0.47743768521827
H          -0.22180355374898   -1.10589287992364   -0.66113240261193
O           1.80582655380482   -2.01452457737197    0.93422956589659
H           1.62600974291693   -1.26936898570939    0.31288474901767
H           2.75895929760133   -2.06113113382753    1.01857647656028
O          -2.12836093681470   -0.55670439588018    1.36696167580442
H          -1.92035636842695   -1.14250840741936    0.60783544287465
H          -2.03798956702155    0.33692594756649    1.00551694021809
O          -0.14555033924834    0.05479893315973   -3.01340986966421
H          -0.75233479218303   -0.66748367119777   -2.82580364576833
H           0.48332510189864    0.07202347023516   -2.27021737390569
O          -0.98668765170090    2.48205638401483   -2.23922277528053
H          -1.00507058815927    1.90099171934483   -0.80351654874265
H          -0.10309917024385    2.85158059431414   -2.07643444927873
H          -0.82282564902854    1.67553738133258   -2.77258213562996
N           0.21827675300185   -0.57196057801780    2.56123768912452
H           0.65224941419879    0.32813559596301    2.14351529847148
H           0.25596921808267   -0.56527440650439    3.57445049334183
H          -0.78503916293371   -0.62795853213827    2.20237590734607
H           0.78475792225623   -1.34502002549696    2.15557193808228
