    26
        -50.45240730  Gyration_radius:  2.50455442228 Dipole_moment: 3.552
 S           0.66845042886295    1.27148786232330    0.58387898020148
O           0.26305440765718    1.10108521800301   -0.79139434734481
O          -0.27095706714937    1.97853910066235    1.39457614782210
O           0.96082330083559   -0.12004157081218    1.18913869733013
O           2.02932148954323    1.95246250141931    0.66207824298400
H           2.71940766764236    1.26532126242952    0.34007707787316
H           0.39990218770720   -0.87063150374362    0.76379866053617
O          -0.39927158593911   -2.00635556140484    0.21046061992494
H          -0.50410936999072   -2.64704948540728    0.91761471916213
O          -2.31218918401086    1.20606865816846   -1.53654541540412
H          -2.30722129766606    1.22353208085192   -2.49481650991731
H          -1.38058102926409    1.28102924396470   -1.25451695661015
O           3.56096721593508    0.06779255762114   -0.04504563114489
H           3.54768170071237   -0.48346063603962    0.74122783545214
H           3.00004288480563   -0.41290006409785   -0.73180569824279
O          -2.35559561379739    0.56320242303741    2.30146330066634
H          -3.04686512027510    1.19871939593128    2.49700700781856
H          -1.57630448126665    1.09233141947828    2.04117829514634
O          -2.70905665110804   -0.92340880095538    0.08042867088491
H          -2.70667892380193   -0.20426428942976   -0.58132065783437
H          -1.32795737896602   -1.60863128516540    0.07568000712979
H          -2.70649400657335   -0.46294666048072    0.94565371966813
N           1.84788409086479   -1.06643721322173   -1.69045118295423
H           2.04863273954903   -1.24934478643551   -2.66518797154797
H           1.20350329157522   -0.27870560539565   -1.63870255433907
H           1.35361033411293   -1.86739428130789   -1.31447505726297
