    26
        -50.46478301  Gyration_radius:  2.65004649132 Dipole_moment: 6.072
 S          -0.72525300617650    0.68925467113515   -0.73606683912637
O          -0.90809966776885   -0.69421999617532   -1.15593459652188
O          -1.76872237557737    1.56341953626616   -1.47871647830429
O          -0.98516140152369    0.85209223171282    0.70163144158669
O           0.61221551825039    1.17804426353012   -1.03481749209791
O           0.97839861341120    1.12868680927511   -3.64741362715259
H           0.94502997154173    1.11481057325130   -2.66401107341290
H           1.12738830135789    2.04349855307085   -3.89254589710987
O           0.79644012322739   -1.90578124739777    0.42275471119379
H           0.23046780304242   -1.56265975839635   -0.30819700380666
H           0.16294744285254   -2.14586622394064    1.11247056439425
O          -1.19331535877187   -1.19752446192923    2.33264046424839
H          -2.10868720634635   -1.33213678986939    2.58202491098617
H          -1.19920739700353   -0.43642229911526    1.70076629066687
O           0.87935505595299   -0.46301366505840    3.92832878582487
H           0.04222472327378   -0.72993355403821    3.49322295128745
H           1.23962618155388   -1.25298743547621    4.33419668966151
O          -1.53721213402297    0.19329578051780   -3.63586607850686
H          -0.63384798188517    0.48011167755825   -3.89066098340876
H          -1.40008849279391   -0.54544868833908   -3.02406402727730
H          -1.82286727607375    1.15784726530164   -2.39602939996981
N           1.49291475671618    0.39471826064581    1.46651525449659
H           0.57233008928697    0.83575324356857    1.20712633945934
H           2.25629442135740    0.94964180201732    1.09460807132708
H           1.51835768754559    0.24761666795054    2.49790661473829
H           1.42847157862092   -0.56279720607939    0.99013036682377
