    26
        -50.45240723  Gyration_radius:  2.50443862815 Dipole_moment: 3.554
 S           0.17525683977723    1.05603636422181   -1.12058197949642
O          -0.79879100733082   -0.00973026526944   -1.12827707024590
O          -0.32931442525565    2.31584827715870   -0.67574569713039
O           1.37697998308397    0.62117989639068   -0.25174446870830
O           0.80953765771080    1.21388317990841   -2.49693619857194
H           1.41648087075923    0.39857863911872   -2.63536125898138
H           1.11498423093511   -0.02717713033632    0.50325860261222
O           0.80347489143427   -0.94988620379547    1.63726210084032
H           1.44088673237008   -0.76685869715477    2.33139318713322
O          -0.53267479456954    2.64147532945999    1.97449611677505
H          -0.41167287474642    2.58028168503763    1.00666328430356
H          -1.18472858182181    3.33153425786296    2.11104221743442
O          -2.99947003293428    0.07082624706940    0.40421992234702
H          -2.24994517010489    0.11910566952016   -0.21945500764369
H          -3.54952122885054   -0.65703025814804    0.11049410324619
O           2.33152291068450   -0.80498523876685   -2.56992722575767
H           1.79233950074099   -1.49259023414082   -2.06617009693831
H           3.03164618548741   -0.52807039189517   -1.97377927830186
O          -1.33268322808433    0.12799718798584    2.53141191280075
H          -0.08462437762482   -0.60255930820735    1.99710341389209
H          -1.05549622200254    1.06703707507012    2.48629914117479
H          -2.04972695944471    0.05076464752675    1.87183361580295
N           0.78336220813316   -2.35781111938807   -1.11374458810469
H           0.45003231951111   -3.26142797354594   -1.42401111307575
H           0.00617447144632   -1.69975722214744   -1.15170569631714
H           1.04597009068973   -2.43666439353540   -0.13803793908482
