    26
        -50.46233094  Gyration_radius:  2.42616480728 Dipole_moment: 5.822
 S          -1.43740630056778   -0.75570879533199    1.20663767193136
O          -1.72839374088247   -0.16737122228901    2.48382505762121
O          -2.20884164058833   -1.89859665581762    0.81776809441864
O          -1.87945664159274    0.39523859267660    0.11210800344272
O          -0.00595564727097   -0.90855592506599    0.94999134380147
H          -0.44960329669721   -1.67516979414954   -0.48366308365894
H          -2.81491229766410    0.22062192216995    0.07578563278794
O          -0.52521504291559   -2.04068033193954   -1.38899623151754
H          -1.30422248750888   -2.60057152122709   -1.34604480455683
O          -0.41346569443079    0.53393052041560   -2.23069418700956
H          -0.99211363880959    0.76701289317056   -1.48926060138097
H          -0.44133861890866   -0.44259132527570   -2.23862437787248
O           2.16643890063854   -1.77628363028332   -0.57107020088303
H           1.67702604342868   -1.66027987662745    0.25671838037469
H           1.52870062614513   -2.19514896178185   -1.16429250302265
O          -0.99449359375626    2.35985485737287    2.11331332851202
H          -1.60789114932547    2.60843735994914    1.41971906115805
H          -1.27482821589900    1.46714771491313    2.40863737140215
O           1.36192325825553    1.32549419561850    1.37879648007567
H           0.92489269066704    0.45155006772330    1.42573069526955
H           1.77272686897820    1.19806572971874   -0.11533319516110
H           0.66209505499750    1.94127374977223    1.67662852339410
N           1.97320623524139    0.83229584856880   -1.10410412240002
H           2.23677395259951   -0.18127428775746   -0.97860923682504
H           2.70566191544504    1.36096373582850   -1.56322328790615
H           1.06869247045519    0.84034510967831   -1.65174380197933
