    26
        -50.45146359  Gyration_radius:  2.53153107523 Dipole_moment: 7.048
 S          -0.86150454286410    0.05294454738381   -1.81629918466768
O          -0.45063496878365    0.95460331504125   -0.75492861876481
O          -2.26631924330233   -0.02205670384749   -2.02629864544043
O          -0.11575610208637    0.40277098901009   -3.08992875899138
O          -0.27717735361124   -1.35202441533537   -1.49051101467953
H          -0.28491810047960   -1.57393539738418   -0.50470778630503
H           0.92139401044062    0.38101537459813   -2.81328505632993
O          -0.16417204619141   -1.93618515404271    0.99386547079100
H          -0.51255254018406   -2.81663505618718    1.14225008683435
O           1.68109178357797    0.14890142037329    0.53824941816266
H           0.89536484839367    0.56739209111377    0.12153832530007
H           1.38260906927987   -0.73872129504006    0.77688124551784
O           0.71697790426751    1.15631233344253    2.93770878150693
H           1.31768644672697    0.96585009965073    3.65918546849146
H           1.18711537154306    0.93910071761692    2.11152804316635
O          -2.82589784645666    1.05188094647767    0.52699147305730
H          -1.96941789310512    1.31087349796429    0.15266413024613
H          -3.27826011143600    0.62203925457055   -0.20599945438298
O          -1.52751876740942   -0.34063741542816    2.43378361695458
H          -2.12701731679898    0.16721358120134    1.84653582754300
H          -0.72975447647607   -1.30998761471809    1.57565585799618
H          -0.85289020640277    0.29716828683227    2.73531624277763
N           2.29530024078715    0.28751505684540   -2.30874102114048
H           2.27098319459561    0.23667468297498   -1.28770932701974
H           2.83809210372651    1.09553979510774   -2.58381744495539
H           2.73717654194185   -0.54761293826835   -2.66992767605732
