    26
        -50.45036099  Gyration_radius:  2.50979597307 Dipole_moment: 3.239
 S           0.42637013447377    0.54220459053533    1.98342484865088
O          -0.74249959195303   -0.02731462980800    1.34637576602366
O           0.89251029594382   -0.11609455986342    3.14706773490138
O           1.56101560247920    0.64953090324263    0.97511615843352
O           0.07502669521072    2.03016788694576    2.33525473853710
H          -0.50072722854948    2.40465852644261    1.65759033577811
H           1.27745523104797    1.10670772513846    0.05231181550194
O          -0.04717203603692   -0.51777221445065   -2.40762058957188
H           0.38647262164284   -0.98000589584178   -3.12539861038301
O          -2.53199043606411    0.67755574823742   -2.11061438286039
H          -1.68350470714235    0.26838063008666   -2.35553640834602
H          -3.11788300578292   -0.04313846911970   -1.87317961267977
O          -1.58099126179668    2.06607581195303    0.00375328597451
H          -2.12330787730213    1.83879060392252   -0.77805054378173
H          -1.50476247934526    1.22092412697600    0.48803832684782
O           0.77652624508194    1.68586716946773   -1.13320724535819
H           0.56759485203588    0.92218809547117   -1.71678780302571
H          -0.09894571782836    2.03300775676291   -0.83465333827611
O          -0.24880382808741   -2.07801685908630   -0.34929736598943
H           0.59238587874104   -2.31823810436004    0.10237661157244
H          -0.65799184071791   -1.45796808092915    0.27521932017916
H          -0.10637038740298   -1.16601659510031   -1.64223253275507
N           1.90560169446369   -2.24542841102615    1.29309480199210
H           2.67542275810526   -1.70136929120250    0.92154751706006
H           2.29244168536440   -3.09470984605171    1.68844035154885
H           1.51612671361941   -1.69998660820322    2.05696680011331
