    26
        -50.46478305  Gyration_radius:  2.6497442715 Dipole_moment: 6.070
 S          -0.76277564832875    0.94619866426905    0.25889769866180
O          -1.52970832348168    2.24192054736641    0.62951521799989
O           0.57794698439210    1.06579653405650    0.84984966087421
O          -1.44019045597478   -0.19910285493036    0.84750193678526
O          -0.69704712473252    0.85511404232190   -1.19406176931348
O          -3.93114462320556   -0.26054563880307   -0.01996335168959
H          -3.00274695588987   -0.34574601001624    0.29517280695838
H          -4.46899320747645   -0.16838663246690    0.76832866480086
O           0.82780902408668   -1.25714549060649   -1.47448717605006
H           0.14628398128807   -0.54518121446369   -1.50570680570946
H           1.66345929953701   -0.78187184708298   -1.57694033456565
O           2.76519207203764    0.60385931786349   -0.53114694390112
H           3.20894779062907    1.42807386711449   -0.73597181148680
H           1.94400134071485    0.85884347784616   -0.04204686934247
O           3.64614002821974   -1.41615265594117    1.05824853188017
H           4.19927901583642   -1.99363572114204    0.52989294548120
H           3.47703246020131   -0.61789434299760    0.51457535569715
O          -3.16763164716112    1.95677804894737   -1.32494349271850
H          -2.39567114650505    1.58419684693051   -1.77666322520048
H          -3.66062373943199    1.17873386487511   -0.98600946929178
H          -2.25225502962059    2.30856360641492   -0.06504852055486
N           0.97089176004092   -1.52320983697544    1.12846173234712
H           0.83018443125878   -1.62517977135999    0.07114115383663
H           0.76524260321533   -0.50200548274070    1.28373138049731
H           0.31210760312480   -2.08956704357338    1.65214890301683
H           1.97426952722389   -1.70245428489172    1.34552380098357
