    26
        -50.45214759  Gyration_radius:  2.46456047578 Dipole_moment: 3.232
 S          -1.67362107830282    0.63050077405327    0.84997405796489
O          -0.68908267713273    1.00583141931229   -0.14916714529714
O          -1.68507095856190    1.44332186278731    2.01345419917507
O          -3.06479476507502    0.58809187621525    0.22060707467808
O          -1.43585052178481   -0.85655968791006    1.21411141614618
H          -0.48201881759648   -1.18644365765999    1.04984375924519
H          -3.08040921312489   -0.19012103849545   -0.43101296779290
O           0.88117363086080   -1.78037334371877    0.77323840474478
H           1.12354413991211   -2.38806008537521    1.47411497974679
O          -2.88557147665829   -1.48565567227924   -1.25389572082864
H          -1.94878592437711   -1.44728937795136   -1.57644218164281
H          -2.92817198272078   -2.21013964731761   -0.62488776052114
O          -0.30401711888720   -1.15084388275913   -1.69309888968723
H           0.24245927609508   -1.67523814295492   -1.09414527094560
H          -0.36374378500551   -0.27400383822466   -1.26960929140557
O           1.02230814045228    2.02552345973233    1.74998264784158
H           0.41429939774456    2.14316278964773    2.48491077997192
H           0.44850104755087    1.85802162388988    0.98899585000655
O           2.62028904809834    0.06462193176860    0.77525351597507
H           2.57021591647338    0.40191822353115   -0.15269163089951
H           2.23437956591284    0.78418709993165    1.30793050441844
H           1.60288743559396   -1.04492967132771    0.77613471619789
N           1.98796684193359    1.07432671042040   -1.65384449514638
H           1.09120174271923    1.42506948509495   -1.33338111796740
H           1.80398380118198    0.39770057434043   -2.38477557079484
H           2.49792833547352    1.84738022724722   -2.06159986377505
