    26
        -50.45146377  Gyration_radius:  2.53150144137 Dipole_moment: 7.049
 S           1.67631940702343    1.10975428850969   -0.05119506720708
O           0.92025130836587    0.27983851406819    0.86961928100099
O           1.72000387512398    2.49081413223015    0.28667441415041
O           3.06468066110000    0.52577912007994   -0.23016311674601
O           1.06973538196232    0.90858356471443   -1.47000223399629
H           0.06419179312835    0.80834107536886   -1.46886928058979
H           2.89616939714805   -0.49323234095921   -0.52359332457577
O          -1.45729091045515    0.53922440799655   -1.53288152892163
H          -1.85529203273092    1.09458622319039   -2.20505546829253
O          -2.47026353857995   -1.51304980564827    1.44528486073326
H          -3.15434888782531   -2.14533006914402    1.22213309762189
H          -1.68142092789505   -1.75188496440428    0.92414029503601
O          -0.31383726088307   -1.71999980116907   -0.28909925900855
H           0.11357295371639   -1.02805794151433    0.26288519999553
H          -0.79501492210022   -1.22487725912909   -0.96530398193377
O          -0.52576686394494    2.26908953117305    1.98632591895318
H          -0.01572802165942    1.45176760130514    1.87460078435134
H           0.02819095040324    2.94443100712850    1.58160329195704
O          -2.58046793936990    1.11882907941527    0.67620502167137
H          -1.91697681062495    0.79260729197619   -0.65256198970320
H          -2.64473828835917    0.24784827199437    1.11237390101518
H          -1.94784181054197    1.63846154953024    1.21654403997060
N           2.52476190207975   -1.84849480444094   -0.94303056255875
H           2.71096549857422   -1.96543667823620   -1.93031976020535
H           1.52583026787857   -1.98642436341541   -0.77351449480456
H           3.04431482847198   -2.54316763057492   -0.42280002790256
