    26
        -50.44199780  Gyration_radius:  2.56669627849 Dipole_moment: 4.093
 S           0.77704437498906    0.70166464779434    1.78435216237256
O          -0.54929822888212    0.25852667333845    1.44856560346795
O           0.87065503462385    1.93916991927924    2.47884576080787
O           1.42523748732296   -0.44043953071609    2.67761029534674
O           1.69192227946780    0.67995820547220    0.58715396175843
H           1.55101999182362   -0.21166593020685    0.00962700931086
H           0.93861877466949   -0.50393740503944    3.49599836375839
O           1.37869352118011   -1.35443818094957   -0.77561832092411
H           2.16310704522945   -1.44766373616205   -1.32024688711744
O          -1.32717464011296    1.38397316086522   -0.95076687112338
H          -1.34473315952040    0.96184289489966   -0.08115193072249
H          -0.73906046782968    2.15922039695375   -0.83265125175560
O          -2.17862757900140   -2.56333725283953   -1.33109812384150
H          -2.29213268348108   -3.48423791728407   -1.56748267574850
H          -1.75461312005701   -2.55078762637983   -0.44509312380729
O          -0.65506115856629   -2.39542595354875    0.89217250604439
H          -0.78288721342732   -1.47299170095228    1.16963794602536
H           0.19862660679006   -2.40233191304666    0.44297091417976
O          -0.48571150027936   -0.71037406277745   -2.30501841307504
H          -0.82905245875552    0.13867644955977   -1.92280141862783
H           0.58898460941730   -1.08960611169878   -1.44424201649911
H          -1.18929899936643   -1.36753418358152   -2.11762391250367
N           0.44388564219450    3.29615269436081   -0.10863246687302
H           0.21443747525936    4.28282776945319   -0.11663488345427
H           1.35927556085597    3.18949827242116   -0.52795062088375
H           0.52614278546344    3.00326043078700    0.86007839393236
