    26
        -50.47016239  Gyration_radius:  2.50289586395 Dipole_moment: 3.083
 S          -0.59875454824043   -0.69820109015730   -0.08233808387652
O           0.19896800828231   -0.90939848728417   -1.28004967025325
O           0.18166819537671   -0.01853206365121    0.95798619526934
O          -1.83576575940937    0.02397168981745   -0.35303198840438
O          -0.95486344741099   -2.11289432170653    0.43307450928380
O           2.61251653480535   -1.90787129199762   -0.90872735480706
H           2.90764277737682   -2.28952378941890   -1.73708229735619
H           1.65626366996004   -1.70647456358741   -1.02873093669909
O           1.28589292478632    1.35391963375019   -2.24736892841493
H           0.87049552903867    0.47163303694764   -2.20556557289510
H           0.56912114518486    1.95168668005715   -1.95398762958336
O          -2.14672331883768    0.86476923133124    2.13711681561789
H          -1.19577885883157    0.95642441049634    2.26557358089892
H          -2.22740864045161    0.69672521770344    1.17704678469570
O          -0.91330134806677    2.38951673855399   -1.12227558501209
H          -1.63967903196401    2.86008794296225   -1.53505438565210
H          -1.27890026643563    1.52511071277740   -0.83692344329204
O          -2.44592820773150   -1.72185412383219    2.52215141414942
H          -2.39688278353830   -0.73185703960266    2.55616625466016
H          -3.35156076560670   -1.93908668283825    2.29130103036920
H          -1.48673276711633   -2.01837842819102    1.27187101504381
N           2.47774153968953    0.61497749046958   -0.04657501956958
H           1.57250636581207    0.40736403770054    0.48520048513934
H           2.85904677974870   -0.31995704401893   -0.30218197571253
H           2.15403290592353    1.08368456711902   -0.95248395002787
H           3.12638336765751    1.17415754660122    0.49488876642891
