    26
        -50.46478303  Gyration_radius:  2.64989330348 Dipole_moment: 6.069
 S          -0.58011560832173    0.53582064864037    0.95902607734671
O          -1.36745224851817    0.49112764814746   -0.28160971846368
O           0.66687400531962    1.26620977474682    0.77114086517095
O          -1.43669163245716    1.29867128434148    2.00242487405985
O          -0.35156931643777   -0.82340170719284    1.42515484348420
O           1.74561771317223   -0.11667040007934   -1.17543482002732
H           1.51572674365679    0.39596832543907   -0.36506911449183
H           1.43624445630643    0.44438066384026   -1.89940850064081
O          -0.76951585554728   -1.25827976107362   -3.77428013276126
H          -0.70681535070783   -0.32405973390310   -3.48328746929630
H          -0.12158843406787   -1.37060200368188   -4.47155210734763
O           0.83281416347749   -0.73352474731233    3.78110633405054
H           0.21971147060169   -1.16109460971328    4.38151690632127
H           0.45503633513394   -0.85182405240338    2.88012216589184
O          -0.35446154666076    1.16220653360541   -2.61143745830650
H          -0.75317677786357    0.99364048053504   -1.72191713401567
H          -0.69432286497399    2.01430458681166   -2.88829110010966
O           0.62493526186958    1.91484920796094    3.40027436572002
H           1.06350656857381    1.95868817795242    2.53743128315303
H          -0.76785004230254    1.63747375376045    2.67085197369452
H           0.83614810004427    1.02043644002392    3.74484890309038
N          -0.30726896199921   -1.74517779525684   -1.18153092236746
H           0.65138989334848   -1.26816459062519   -1.14209130546806
H          -0.56811598496613   -1.87714670545142   -2.18182461850075
H          -0.33154692876456   -2.58846210312855   -0.61822770430544
H          -0.93751315790293   -1.01536931597306   -0.75793650587871
