    26
        -50.46772985  Gyration_radius:  2.42901326703 Dipole_moment: 6.705
 S           0.06669435782659    1.06897602097356    1.15361479885285
O           0.16444071813703    2.16826592195789    0.22744778571808
O          -1.24899534723651    0.44582598122408    1.21253203981003
O           1.09779606060396    0.04697505991580    0.89116365844242
O           0.34240874282015    1.59580899438229    2.60371463505377
H           1.21961621566288    2.01583002756263    2.52705379293793
H           1.20219358756527   -0.41252717987229   -0.68626783318315
O           1.22165664025033   -0.72874820302800   -1.61999636131457
H           2.14143895738585   -0.74393399601525   -1.88822300844885
O           2.61487907564048    2.26596082021192    1.41401854098077
H           2.53685456862037    1.33666816359467    1.15922850600120
H           2.07171831429857    2.74451689646987    0.77428693247563
O          -2.50441824351395   -0.21565110703415   -1.17986575809844
H          -2.00138327904559    0.40569663686999   -1.75091327807427
H          -2.33009423563386    0.09803542353180   -0.28025221958680
O          -0.60264478726072    1.33658049506581   -2.24836563344901
H           0.07754986183889    0.65338130929713   -2.32571510875148
H          -0.38859269825227    1.81885640086162   -1.43115339935418
O          -0.99319888617434   -2.33247649265932   -1.31008795519041
H          -1.69376967368987   -1.61883413937154   -1.37351219778884
H          -0.19262745407655   -1.91904457743298   -1.67435328881871
H          -0.75782042813449   -2.30420902283443    0.12820417551724
N          -0.56164858727400   -2.04552764272076    1.19318409579931
H           0.43468692443494   -1.84396657999474    1.30689099444726
H          -0.89889496323222   -2.74181257550179    1.84864316741245
H          -1.01784547156245   -1.09464663545300    1.32872291860634
