    26
        -50.44561208  Gyration_radius:  2.44525610327 Dipole_moment: 5.694
 S           2.02339382873548   -0.58373573778345   -0.63261091477677
O           2.19653999169153    0.15009901693639   -1.85231905638103
O           3.18160191903558   -1.02207847971187    0.07066478431820
O           1.13562785266077    0.27057755167471    0.31223565212378
O           1.15655461017558   -1.84198750851816   -0.90252011488006
H           0.18895229757324   -1.59862794833682   -0.99832167528325
H           0.92485734720327    1.14599458515404   -0.16134658340213
O          -1.34240836803509   -1.24687176079899   -0.88639485933055
H          -1.88598245751875   -2.01617114101670   -1.06675661852356
O          -1.74729103415076    1.29895685518110   -1.74305520302973
H          -2.05145181873554    1.24898840151080   -2.65059783947015
H          -1.64561172596520    0.37850398803377   -1.42822979644228
O           0.70241805377451    2.27269718204688   -1.17003777096990
H          -0.20813275007958    2.06532443813699   -1.46873513519286
H           1.31094402130676    1.83278454501578   -1.78571285753128
O           1.46223760848402   -1.97403129652978    1.97416907546571
H           1.51111206204619   -2.91726707769561    1.80492073332332
H           2.15569027867431   -1.57111769013189    1.42790890331763
O          -1.13349557905266   -1.05112905995084    1.61549893742637
H          -1.17914468396726   -0.06914700818913    1.71936862036955
H          -1.30313259750919   -1.16526965965635    0.15108074340136
H          -0.21184081158628   -1.30464285783321    1.81790630197359
N          -1.32450194812913    1.65903035053023    1.51900290288496
H          -1.90096704539523    2.18803248777471    2.16089172432609
H          -1.64282726585893    1.85486244416299    0.57717661492071
H          -0.37314179536908    1.99622536996861    1.59581345137348
