    26
        -50.46247237  Gyration_radius:  2.42035190066 Dipole_moment: 7.247
 S           1.07353482508408    0.90447216283526   -0.02843056014027
O           0.02532926458123    1.11951229520366   -1.02090896836123
O           0.84941303359326    1.63255098555798    1.19514825647410
O           1.06103778357810   -0.64073536586912    0.29667670115969
O           2.40424875839753    1.09136632791978   -0.60541165759871
H           2.45647663232033   -0.01303405942398   -1.50090822989161
H           0.13435692258876   -1.01085160169664    0.27852181508227
O          -1.28230365068216   -1.73083625938569    0.08228424725649
H          -1.31759988285442   -2.50854480799879    0.64236787513934
O          -1.79788261793204    2.36722832362552    0.47639133445334
H          -1.24976751551929    1.99190716453324   -0.23678991498990
H          -1.15301605864774    2.66733215881365    1.12439840678255
O          -0.21250398067179   -1.04286590955941   -2.42272693698163
H          -0.27540953314232   -0.12689409801244   -2.05934003486635
H          -0.70031048266032   -1.57086622383823   -1.77416565593580
O          -0.37112473959410    0.19034467292537    3.05421733059012
H          -0.27962866118383    0.67266527855529    3.87723906476550
H           0.14485077284976    0.69339062178457    2.38777003482521
O          -2.57000688216879   -0.00806616024096    1.47317036965043
H          -1.92015264241937    0.00783890656002    2.20189245369881
H          -2.49734972358755    0.88047584576424    1.06095962996288
H          -1.87930345688302   -1.05050343722884    0.54217257117483
N           2.38249329100164   -0.92732034326287   -2.13227662735717
H           1.32734115557798   -1.07945632634527   -2.30589751750140
H           2.76262444349425   -1.70443005869486   -1.59998508873852
H           2.88465294486944   -0.80468008250050   -3.00636888864952
