    26
        -50.47016248  Gyration_radius:  2.5028673338 Dipole_moment: 3.083
 S          -0.47304965174550   -0.05020617535352   -0.79111306429437
O           0.64521805602981    0.77583112569492   -1.21825017538053
O          -0.80376958025427   -0.95744229152718   -1.99984652005436
O          -0.09242723937042   -0.91227301975215    0.33369177998882
O          -1.65598082235011    0.73520580112699   -0.46100249968609
O          -0.81391031251904    2.09827444554519    1.65331573267400
H          -1.44180033180332    2.80680265490603    1.80574643804892
H          -1.14967113208217    1.60247185169222    0.87623528427278
O           1.71086175729537    2.24202051890696    0.77050114025108
H           1.39805411628009    1.97145928416431   -0.11361060431246
H           0.88041041859744    2.35769887819387    1.27459658648663
O           2.95097765623590   -0.46675593290486   -1.53408327117555
H           3.50508921353249    0.07240879863510   -2.10086328480331
H           2.05079943828679   -0.07055924002539   -1.57900400462755
O          -2.73852671465144   -1.13390049374085    1.06828142299405
H          -1.87710014077318   -1.42819960709369    1.38533117447990
H          -2.52902114377667   -0.31101561372698    0.58305696202156
O          -2.85392709507488   -2.36511595593394   -1.25511691905038
H          -3.62949968215266   -2.03329588684306   -1.71245292710196
H          -1.55655140040844   -1.56081012892717   -1.74486973303851
H          -2.92301224668708   -2.04305779205948   -0.31962709980984
N           2.30992542773263   -0.28223366633403    1.05084237812107
H           1.31998203815072   -0.63702697064327    0.85172277538654
H           2.84627884775309   -0.48226402234785    0.18084445353605
H           2.20430369534259    0.78054311756589    1.12044044951137
H           2.71634681841472   -0.70855962921757    1.87523353555869
