    26
        -50.45462871  Gyration_radius:  2.52312110989 Dipole_moment: 3.143
 S           1.89337905461668   -1.61231715414664   -0.61595343228233
O           0.99163522621605   -2.27730625347347    0.32550733172947
O           1.17709889695309   -1.01151621090621   -1.72003351203965
O           2.78767515697192   -0.69972201626985    0.06974058613441
O           2.79711178063172   -2.75257761377519   -1.23141227625765
H           3.26988419004721   -3.04063560636179   -0.45845240534240
H           1.94448130845893    0.28358557695926    0.98726580439340
O           1.39942773147118    0.94752663260210    1.48777382392510
H           1.98386074562926    1.32051293850781    2.14955784225742
O           0.36028243285441    1.50322434091616   -1.03217165686292
H           0.73790864333866    1.57216185434649   -0.14298699427753
H           0.83982422598870    0.75960133436301   -1.43610626202396
O          -1.43147987449139   -0.48076375836954   -1.78422503307184
H          -1.15638965873668    0.42857033723923   -1.57813476049881
H          -0.59479914112591   -0.89214044614179   -2.07339244322308
O          -1.41127697560002   -1.62183700091707    0.48651184536411
H          -0.43913327905091   -1.97943534713163    0.44974382557042
H          -1.56123940744992   -1.19924947610804   -0.44118853475164
O          -1.21300280632700    0.38770088398893    1.93580347304054
H          -1.64700268733251    1.09818359917984    1.38702978594919
H          -1.37734596150066   -0.80006877203312    1.18212871006485
H          -0.25335031528058    0.57287235032344    1.89763660234198
N          -2.21809146298797    2.19922948469364    0.23885959922972
H          -2.47678243450695    3.10319613512194    0.61218459377561
H          -2.98812347067095    1.86287328683196   -0.32583480015035
H          -1.41455193810874    2.32833092055953   -0.36985170299856
