    26
        -50.44561211  Gyration_radius:  2.44525314765 Dipole_moment: 5.696
 S           2.05623001345336   -0.42450932460497   -0.65301457177788
O           2.33903087944220   -1.67546366874048   -0.01168246355371
O           2.81418713065111   -0.05975657919343   -1.80218659759504
O           0.54339899815455   -0.40223553568860   -1.00165857140993
O           2.20749902079707    0.73018993492374    0.37226918713342
H           1.42035537248474    0.76659317674963    0.99170087598654
H           0.14167215715429   -1.29131911281878   -0.71318244824187
O           0.07430942934515    0.98139927511369    1.78154275505933
H           0.16356300672398    1.68342439066776    2.42885585564428
O           1.22039119925776    2.15970901617182   -1.94414361810596
H           1.75477793301073    1.35776818156447   -2.05768052868033
H           1.82620440333555    2.83583416406182   -1.63334797850009
O          -1.17667971830405   -1.40863952532899    2.09974264471395
H          -0.75892824728131   -0.52890248566108    2.00865555296480
H          -0.96961158825760   -1.72328067528669    2.98109695034318
O          -0.16263091108239   -2.64549033808637   -0.07281239702960
H           0.78364295279171   -2.76451016948981    0.10960511627422
H          -0.58236159682168   -2.35474592943409    0.76417767376315
O          -0.98828429892355    1.98754081802532   -0.26784923175406
H          -0.40092204752236    1.41211613887717    0.96104694536648
H          -0.27636409202874    2.02475870731621   -0.93602528731841
H          -1.58340369753644    1.24635159506768   -0.53914327829131
N          -2.50730821598013   -0.22726507520664   -0.68940176936224
H          -2.02737253566912   -0.74463671404593   -1.41511461914630
H          -3.48866869101991   -0.17791212068997   -0.93166072140547
H          -2.42272685617242   -0.75701814424486    0.17021051492252
