    26
        -50.44561208  Gyration_radius:  2.44524713327 Dipole_moment: 5.699
 S          -0.76240499230026    2.05813052160115    0.13555304109302
O          -1.42878522372502    2.23119794524024   -1.12226053226248
O          -1.13412922796744    2.89525053944413    1.22600363601171
O          -0.91265192700578    0.56947748454807    0.55027178549581
O           0.76770619665454    2.22555909483314   -0.06022891177254
H           1.16698155474735    1.41101547626503   -0.48654553853510
H          -1.46965812133936    0.10038811089773   -0.16017524733849
O           1.82092752365196    0.04126514022258   -0.90818471684328
H           2.76490323747437    0.13907593229468   -1.04662926267459
O          -2.20962045882399   -0.31801567254101   -1.43056681166123
H          -1.48479701162347   -0.76260851282414   -1.91874184259942
H          -2.22191634248201    0.60854906969554   -1.72079948004736
O           0.63884102908531    1.44787560665351    2.72548248965413
H           1.35940178416917    2.07641035857737    2.80646403571249
H          -0.09517409105371    1.93783059951477    2.32202212410044
O           0.06593198346284   -1.36770136140423   -2.42941167673768
H           0.72763795426537   -0.89298465460678   -1.88764548333540
H           0.30711620913066   -1.22750327493555   -3.34638523142934
O           1.49825514165703   -0.85122884012944    1.42435750967463
H           1.71560675115470   -0.36398763414519    0.04539134133488
H           1.13322079097732   -0.10460759439421    1.93820477979801
H           0.74683041706023   -1.47507174779870    1.27171282296700
N          -0.53037594511157   -2.47711194117689    0.62946907838247
H          -0.60871196624493   -3.43983496765085    0.93150565980345
H          -0.47635250896757   -2.46923805526484   -0.38233767479800
H          -1.37878274682158   -1.99213164291926    0.89347409602634
