    26
        -50.45462851  Gyration_radius:  2.5231060004 Dipole_moment: 3.137
 S          -0.34708988922425    2.51777039225084   -0.32202834926449
O           0.81760976028870    2.30597394922746    0.53832990313451
O          -0.28366808524229    1.71870280985794   -1.52639164723883
O          -1.58289046358988    2.36305344043323    0.42053255663267
O          -0.28072150982810    4.02857866371105   -0.77898859827463
H          -0.38930669645193    4.47121180939823    0.05541656981477
H          -1.57233655810375    0.97478330760164    1.19056648920108
O          -1.58922444791406    0.06682099171676    1.59525871225834
H          -2.23253372064243    0.10811063625017    2.30454752131540
O           1.28174852106799   -0.39942260785740   -1.91307907276871
H           0.47955488731315   -0.91275536044780   -1.71865788417535
H           0.92321651891710    0.49240940007882   -2.08395774505218
O           2.15882620834001    0.20611081107394    0.39396369449481
H           1.93465534005153   -0.10359066748691   -0.56289417652534
H           1.67983464704276    1.12082730872877    0.48464235639852
O          -1.33457263268900   -0.75805154038647   -1.04975572716542
H          -1.21009174045752    0.15459971554273   -1.36224000307540
H          -1.61173481333945   -0.65562664224513   -0.12744455938961
O           0.73996151148043   -1.30623496672177    1.76429332112652
H          -0.09511598592762   -0.80097886212589    1.82781416849314
H           0.55294676660325   -2.05912877088356    1.13785623201723
H           1.61901716899317   -0.45482759170585    1.05117515635836
N           0.17205718376237   -3.12558612320638   -0.11695110887926
H          -0.54179895359321   -2.61969177588673   -0.63401511919070
H          -0.22377513309500   -4.00695385203470    0.18298273352831
H           0.93543211623811   -3.32610445489107   -0.75097542376962
