    26
        -50.44926946  Gyration_radius:  2.40451358704 Dipole_moment: 3.112
 S           1.80265296111312   -0.17838951575401    0.82348887113543
O           1.53625828400186   -0.08798260003263    2.23146764648652
O           2.97264714835535   -0.86705234068934    0.39689878437421
O           0.56857729321872   -0.83440176725510    0.15138543557716
O           1.85604653358432    1.24361451569746    0.22247185532811
H           0.92760867309146    1.63907895060573    0.13395696666419
H          -0.19997511611382   -0.98892705686176    0.78851550679340
O          -0.50545510286106    2.10676108543799   -0.13429047677041
H          -0.52351262010652    2.99896287049509   -0.48610963357164
O          -0.79161242325438    1.24869366925937    2.51484324671294
H          -0.83660818605599    1.72367565597779    1.67234356902299
H           0.12977636665845    0.94341188523664    2.61154380623003
O           2.08075528528351   -0.31139218657324   -2.14269630001003
H           2.68121702837538    0.39200523768002   -2.39875682167237
H           2.42363779875102   -0.66080953479444   -1.30588724932547
O          -1.35214863576301   -1.19039178342296    1.82160352326266
H          -1.34634642528473   -0.25089447848902    2.16004087976346
H          -0.98575173802852   -1.72070768285799    2.53312088686353
O          -0.58394778764177    0.55377523105794   -2.13260748525000
H          -0.62575500311513    1.48216568740574   -0.94667139120983
H           0.32369920126203    0.20056834342727   -2.18812691836449
H          -1.14562970093167   -0.21408534695212   -1.86709288728219
N          -2.01675791721898   -1.57887138585689   -1.23430930027268
H          -1.31848508412351   -2.30892042620052   -1.30088559975951
H          -2.86587599145836   -1.90991984922602   -1.67439759034489
H          -2.20501484162221   -1.42996716754233   -0.24984932426736
