    26
        -50.46451021  Gyration_radius:  2.41961491143 Dipole_moment: 3.390
 S           1.16177011311246   -1.48200543719144   -0.18182209329273
O           0.38261672352016   -0.97217405285970   -1.31263215976044
O           1.59634929372652   -0.40363887328505    0.67967794985541
O           0.48622678248817   -2.56527970094775    0.49443460164177
O           2.47609416699404   -2.10478507068172   -0.80495559615856
H           2.15222636587392   -2.96203810936424   -1.05694158827946
H          -1.16318181466166   -0.02236111959814    1.90398463926923
O          -0.61511738226846    0.75241970431166    1.70441629660898
H           0.24005753651131    0.38094327512238    1.42072652842959
O           0.28363656809595    1.53630602670308   -1.76080299393099
H           0.38666067446177    0.53221338138337   -1.69664290974241
H           1.01194097418306    1.93237611772274   -1.09877858267193
O          -2.32137737131885   -0.84960824650461   -0.92680300223088
H          -2.38629006250449   -1.22449770739184   -0.03499692419215
H          -1.41113366565682   -1.03648192332280   -1.21377659228095
O          -1.73351372369739   -1.77451698079149    1.62689331110443
H          -2.05724828956283   -2.44972399591782    2.22484549099262
H          -0.89611269573319   -2.12507390031724    1.23869203311910
O          -1.80942822599702    1.68825528342505   -0.45840746542685
H          -1.43019962650846    1.50676877404964    0.43913453483852
H          -0.67865504749558    1.70149429489817   -1.25728391000897
H          -2.22209710456706    0.82343827633195   -0.71781533243843
N           1.98114323609778    2.27622636958696   -0.01732585383816
H           2.09775615782211    1.33638292409319    0.36860982815663
H           1.57844211549153    2.86121433419401    0.70395763845883
H           2.88943429154867    2.64414638634859   -0.26638784821231
