    26
        -50.47220515  Gyration_radius:  2.41971708469 Dipole_moment: 2.800
 S           1.21953291897170   -0.15666560882659   -1.20242910251184
O           2.45030352351273    0.38325148819437   -0.68011985046394
O           0.81481626320147   -1.37636539543613   -0.51013774574343
O           0.14134345004723    0.81191229953105   -1.27099772761204
O           1.50966670323162   -0.57579373679592   -2.70630218014163
H           2.43618506322345   -0.78510147099550   -2.66654034350330
H          -0.41187278381532    1.69638892235316   -0.01947381542407
O          -0.68751232370139    2.18347613442015    0.79131820348279
H          -1.09814159915231    2.99503940999835    0.48918228828525
O           1.81972337385345    1.38834115247433    1.71982302395046
H           2.20038622519471    1.13390669352400    0.85424092738560
H           1.03938365505442    1.93001620628789    1.52050402961677
O          -1.57125944984458   -0.41336914286957   -2.92428824272865
H          -0.97524611247155    0.15110035973262   -2.40112486176267
H          -1.00746793244550   -0.87897041175241   -3.54416711210870
O          -1.90047029117966   -1.51353662073743   -0.40298807764380
H          -2.16480745534791   -1.16596712939462   -1.26899751113816
H          -0.93487681310197   -1.60729690565466   -0.46900660805807
O          -1.88922528405489   -0.08046223894295    1.83976189900157
H          -2.09293053950352   -0.60344472654660    1.02777508566477
H          -0.47921588961388   -0.61745990100693    2.13523260521275
H          -1.67566352308484    0.81768323142827    1.53409897507113
N           0.56671816371651   -0.89057741392777    2.08763424410623
H           0.82136772533424   -1.57002374600380    2.79499352061843
H           1.14082657302078    0.00110028481813    2.15114483188288
H           0.72843635895272   -1.25718173387259    1.12086352456058
