    26
        -50.46044995  Gyration_radius:  2.45562450403 Dipole_moment: 6.766
 S           0.19700242399001    0.90914073033638   -1.25565182946943
O          -0.93269242808308    0.02095743683649   -0.98037519625249
O          -0.03850776036030    2.26458052442407   -0.84987668761035
O           1.41151511261466    0.32674786680790   -0.42591379799540
O           0.65998024552025    0.76100677127389   -2.63752659825307
H           1.22646525318302   -0.52559867684776   -2.61337789060289
H           1.10363752472253   -0.09444571427404    0.42223236602447
O           0.72743749121356   -1.00168399405720    1.70128127289724
H           1.42984779719148   -0.92955060543351    2.34962662837187
O          -0.00247128096950   -2.36635693664521   -0.60945878708129
H           0.31423353125291   -2.24600538953234    0.29828202841674
H          -0.54324868538474   -1.55375596293419   -0.76844765207767
O          -2.93714743612678    0.55187964001378    0.68203068591206
H          -3.56356163180047   -0.15014525981835    0.49982512987136
H          -2.23131786785850    0.46666731903905    0.00822348574272
O           0.12940101217834    2.69714432935928    1.74982109213612
H           0.11185423131134    2.55104763860489    0.77795699448705
H          -0.32736345745353    3.52860833819640    1.88888580609876
O          -1.10755827836500    0.49107487381338    2.66383329770448
H          -0.66145369514929    1.34546879736297    2.48049259593872
H          -1.88219919622560    0.48884665214778    2.06584763463297
H          -0.05279874373496   -0.48230235599352    2.09969778709160
N           1.66137885052920   -1.54504709471156   -2.44941351342545
H           1.04118051837362   -2.00005731029972   -1.69438620934372
H           2.60520794009623   -1.42239890675397   -2.09509326848912
H           1.66117853932993   -2.08582271105385   -3.30851536485449
