    26
        -50.44410014  Gyration_radius:  2.49521444069 Dipole_moment: 7.234
 S           0.48401168104334    2.34437460591256   -0.60342891323300
O           1.12961373605772    1.22138664359044    0.03045009370606
O           1.31595867111557    3.34916597702670   -1.14840184205533
O          -0.49219333087819    1.77649776871156   -1.67970002458983
O          -0.51118503775673    2.97690277207880    0.39930729177656
H          -1.08239902564418    2.22949406515834    0.70874389979755
H          -0.24128788375868    0.84093304150615   -1.92717164547429
O          -1.52719237072050   -1.39278888315741   -0.11892458638499
H          -2.19320740205792   -2.08112174274675   -0.08726972859877
O          -2.03558925586285    0.95248706034462    1.05721972893208
H          -2.92888117845552    1.19174763901342    0.80355250345148
H          -1.82568975607536    0.10333325272580    0.59650833732663
O          -0.15019144797236   -0.70829283973980   -2.30280951679879
H          -0.72978554228510   -0.85837308897789   -3.05269987673976
H          -0.61812782336723   -1.04651794462060   -1.50399759531341
O           0.41587838778887    0.28665587412212    2.48448346307087
H           0.81081828370484    0.66275817840520    1.67802237624708
H          -0.49004552372057    0.60813696469092    2.50290644705717
O           0.36425650899157   -2.16121728060839    1.36060263361568
H           0.44269527381774   -1.39522354228724    1.96858140190821
H          -0.75835220057747   -1.72970954176384    0.49384891202448
H           1.13335885743011   -2.06008402894851    0.74287137661576
N           2.23402275591703   -1.44361444388158   -0.42419718196349
H           2.02074001810132   -0.45934536166699   -0.27594844197756
H           1.99957983023603   -1.64659727781872   -1.38828488349209
H           3.23319376492904   -1.56098785706876   -0.31426423891221
