    26
        -50.45335449  Gyration_radius:  2.50733303924 Dipole_moment: 8.535
 S           1.32147851513378   -1.94884799443609    0.73494720303332
O           1.02725765283500   -1.45394637931207   -0.63209557987742
O           2.41801706221880   -2.84957567059372    0.79622076874406
O           1.47598172952084   -0.76759948109530    1.62230618227206
O           0.03132720036818   -2.68832713545323    1.21417061579279
H          -0.74627024556634   -2.11335058291349    1.03055629430334
H           2.03039678271809    0.37415290512057    0.71740335572155
O          -2.12390856266766   -1.23416050297457    0.62288677486721
H          -2.86809122888180   -1.83504009295468    0.68041493388218
O          -0.04038981710422    2.54043149011433    0.18989104416956
H          -0.05452071868936    3.38579343736753    0.63974851490090
H          -0.35695829542919    1.85991602637478    0.86738821826250
O          -0.91737421306522    1.64670541302723   -2.25897864441387
H          -1.68268472991150    2.13100729576137   -2.57120236573739
H          -0.67241411912687    2.02654742578549   -1.39797483013971
O          -0.68475199655014    0.72638716806227    1.89598735289940
H           0.11851282850786    0.15909587132354    1.94791216300937
H          -1.38049357641399    0.14106592287579    1.56102458952989
O          -1.31828134550418   -1.04408168353862   -1.81609131774512
H          -1.20041536535132   -0.11777262509337   -2.09400929629956
H          -0.42450575657413   -1.34366677839732   -1.55626055235451
H          -1.91140815251944   -1.13507428976576   -0.35711434564026
N           2.02945393451267    0.83430127815894   -0.24951457061745
H           1.62288264742622   -0.01612808917831   -0.75655609440862
H           2.94924420150439    1.09532175312653   -0.58465555008887
H           1.35791557860922    1.62684529861250   -0.24640485406762
