    26
        -50.45933161  Gyration_radius:  2.41996048055 Dipole_moment: 2.258
 S           1.62858927539537    0.75754890221279   -1.19912137427638
O           1.05628443929343    1.67684735898378   -2.13865722915082
O           1.94451716845749    1.35205094893547    0.09052010991124
O           0.84090780490978   -0.46653887669348   -1.02425718359079
O           3.00892132969639    0.26207175676557   -1.82694371746752
H           3.22865240599053    0.95587956507806   -2.44119879579641
H           1.13516945330944   -0.71468807936304    0.62705057046588
O           1.21917660170712   -0.81188212412519    1.59833832455479
H           1.90222387381701   -0.17490765418766    1.82705196172824
O          -2.36943218967043   -0.91190378055926    0.47384921702462
H          -2.19194370946545   -0.29422750705620   -0.33955809408980
H          -1.69335722858364   -1.73979841635028    0.31158118969868
O          -1.59419918637798    0.61912666505070   -1.37665206231040
H          -1.38121266459893    1.44912013592381   -0.91162609828555
H          -0.71746190122531    0.23515226325539   -1.55943281936808
O          -0.42544953848283    2.39261775780399    0.34883732618298
H           0.49839662533409    2.05045702477814    0.26865389118197
H          -0.38636995801193    3.30471572706649    0.05621653726012
O          -1.07835281759637    0.42037928974356    2.17327512710483
H          -0.93730145307169    1.26448829917605    1.71426479528856
H          -1.94707613780168   -0.38096764113257    1.26549616309986
H          -0.21620806697362   -0.05748892972900    2.11226889261353
N          -0.60964350812621   -2.67287123044481    0.04051581875688
H          -0.08440489896937   -2.84460658178974    0.89007065620341
H          -0.01425442115712   -2.11554918759713   -0.57196404030862
H          -0.81617129782045   -3.55502570575116   -0.40857915633227
