    26
        -50.45933177  Gyration_radius:  2.4199024439 Dipole_moment: 2.253
 S           0.69976989495358    1.03521158761294   -1.76080513332308
O          -0.44070449465462    1.68347522089449   -2.33917449311182
O           1.35196472344402    1.80982949748832   -0.71627393040594
O           0.42493399966313   -0.32827813846750   -1.29768709334514
O           1.76688973475117    0.85521913930506   -2.93287412708442
H           1.51191041423961    1.52413668504419   -3.56111976898673
H           1.44089811718997   -0.33664790589021    0.05959248806923
O           1.94818678652764   -0.31666892508297    0.89756755165616
H           2.46112895483042    0.49362241484002    0.82719105860138
O          -1.60306028164935   -1.44292091949187    1.42026814915771
H          -0.86101673879574   -2.08042630185921    0.96126916003136
H          -1.95959761903009   -0.87914420447720    0.62662918068941
O          -2.12701688352572    0.05612013851621   -0.54114908405008
H          -1.97372140282600    0.95275090880985   -0.19023733786701
H          -1.34024319535644   -0.10456820301564   -1.09315832840087
O          -0.87519386385904    2.22488538816390    0.56212792588944
H          -1.21364919294038    3.08414039343028    0.30466431684581
H          -0.01564073404956    2.12643951704344    0.08417271319166
O          -0.13558199435608    0.33033609967403    2.43561107908512
H          -1.04941869128214   -0.74926621534475    1.96770931602145
H           0.71565818588671    0.08736540265141    1.99764047648141
H          -0.43666111110451    1.13546390535529    1.98373718733589
N           0.21809210685774   -2.72481115335097    0.22558016062624
H           0.09097818233960   -3.66800276952144   -0.11605975177578
H           1.07649695486914   -2.67603035273608    0.76212486948348
H           0.32459811783226   -2.09223118972455   -0.56734657484159
