    26
        -50.46044997  Gyration_radius:  2.45577927248 Dipole_moment: 6.769
 S           1.01062746865979    0.96377945262866    0.70111910656109
O           0.33293244148493    1.17578659861196   -0.57828336772084
O           0.33154655571260    1.57381538284617    1.80751199522108
O           1.03973232847287   -0.60319924797890    0.91544775558765
O           2.43432940794700    1.29526695606322    0.60524626024361
H           2.91483383814964    0.26163504861624   -0.21799473397065
H           0.23549926752910   -1.03885969358026    0.52170297704452
O          -0.88759288861518   -1.88977534825284   -0.26230638036288
H          -1.07756961616493   -2.68606486917221    0.23648820900643
O          -2.18922121800104    1.95996586062118   -0.87323101684379
H          -1.24324124036787    1.77966932784927   -0.69461921854037
H          -2.24987554317603    2.15304954104137   -1.80994375614633
O           0.88876688827807   -0.82730854223873   -2.12073241866846
H           0.27318035764325   -1.46786602400984   -1.73411275831473
H           0.61056224797147    0.02826516897587   -1.70974543090304
O          -1.83357183852102    0.30368498518790    2.62804883144753
H          -1.00311360100770    0.75432582362525    2.35713409804035
H          -2.32177854134177    0.95561897561771    3.13399617024055
O          -2.88885763722347   -0.38940522283658    0.25359660140004
H          -1.71084772093155   -1.30214599507245   -0.14359952644740
H          -2.63989731892386   -0.18840714159201    1.18110317637090
H          -2.79044062092299    0.46462354408886   -0.21395964463935
N           3.16655945490220   -0.62370867126965   -0.85674818920941
H           3.97382326238693   -0.43499807359718   -1.44258054639288
H           2.28328924040789   -0.80828388671789   -1.44631603579900
H           3.34032503558430   -1.40946395941808   -0.23722215704024
