    26
        -50.45933112  Gyration_radius:  2.42010565599 Dipole_moment: 2.263
 S           2.05503069402745    0.59214238811073    0.30216274688951
O           2.21540681845583    1.86601065319058   -0.33594854273261
O           1.54818612932903    0.67244827514576    1.66315205000501
O           1.26785051110065   -0.36103528495839   -0.48636646628277
O           3.50863302494200   -0.05925622540402    0.39094443138371
H           4.08628282591769    0.69299827102403    0.30488561523809
H           0.48655824893027   -1.15267958897881    0.79405102812018
O          -0.04123900716632   -1.54848513632513    1.51834038179958
H           0.39158230087121   -1.22194466819594    2.31248540999038
O          -2.21011436175398   -0.31680605020528   -1.29774370456577
H          -1.61440371946429   -1.21416604346941   -1.38286333431868
H          -1.54654891867595    0.43684894532963   -1.55581706172676
O          -0.39949027219790    1.40866208136348   -1.63295643301153
H           0.38793677983847    0.86635673244733   -1.44416970450181
H          -0.47421614667051    1.97537501065796   -0.84328427799689
O          -0.43857394122565    2.20846274864805    0.98415555791762
H           0.32650371057944    1.66254166097739    1.28990569654562
H          -0.18714403108917    3.11800191732468    1.15321517690396
O          -2.15431399413811    0.04985030889434    1.19034416627388
H          -2.33023983738746   -0.17876642934405   -0.27104472677114
H          -1.45572984809120   -0.60879611522149    1.42181706223976
H          -1.72453453535160    0.91753295945582    1.26482193237413
N          -0.63229211064456   -2.28986730786274   -1.36990462297347
H           0.23733807076987   -1.76543696914096   -1.27526610268464
H          -0.56306181632701   -2.90738021789546   -2.16768516865407
H          -0.73940655452272   -2.84261189558093   -0.52723108957503
