    26
        -50.46815422  Gyration_radius:  2.47606973586 Dipole_moment: 5.897
 S           0.19237037261836    0.76571968344095   -0.81476502617244
O           0.26388222762292    1.87855195631170   -1.88170186969426
O           1.37689299877700   -0.07885714934356   -1.01948236953003
O           0.23131441231461    1.38041907439030    0.50570640071297
O          -1.02615958769869   -0.00550873417417   -1.02193088482886
O          -1.25867200732424   -2.10517840740980    0.55200462123498
H          -0.03632185932359   -2.55553133887158   -0.09154150453865
H          -1.42923083978817   -1.34530605925885   -0.04809437805610
O           2.68966735292636   -1.08810747408448    1.07705700118278
H           3.38779870074068   -0.55052957510688    1.45335294499427
H           2.31499457785302   -0.56836200836847    0.33448369330527
O          -1.82398448633226    3.03004022610058    0.75792572394205
H          -1.06655711019832    2.40617855380732    0.77269689085593
H          -1.47683944663958    3.87848503585598    1.03782613094616
O           0.17972850037368   -0.67692078332843    2.22609039629091
H           1.09899910327057   -0.95794529316293    2.09990570264217
H           0.11365490584460    0.16497303192714    1.73588333879666
H          -0.89177180868220   -1.67510680993540    1.36538698284579
O          -2.25817898103911    2.26905436094135   -1.77105374579752
H          -2.32180973101625    2.68758365523415   -0.88634622320574
H          -0.69405531136371    2.16704048207474   -1.96821001293656
H          -2.30006210431823    1.31608672719590   -1.60161528980012
N           0.95601388440933   -2.61773935562958   -0.59787841783017
H           1.68961516942785   -2.79144967387906    0.08936620489923
H           1.11129242824807   -1.62847755056440   -0.95677692691185
H           0.97741860930148   -3.29911256416787   -1.34828940334101
