    26
        -50.46815408  Gyration_radius:  2.47650777239 Dipole_moment: 5.906
 S           0.79333709816521    0.41052377778217    0.69730552518088
O           1.67053668770832   -0.26938069185715   -0.26528619021111
O          -0.09999986458121   -0.54580195716849    1.33750053405568
O           1.71891831583159    1.02166101802657    1.77053072342616
O           0.06157392135084    1.48690758506809    0.04252219128563
O          -1.62953990062987   -1.88608023123129   -0.33736464450017
H          -1.24508395047302   -1.44970631294536    0.45528680529833
H          -0.37514950250224   -2.37071409741300   -0.88707115044742
O          -1.35932656192607    2.79860342939214    1.85070266063880
H          -1.14372782718039    3.72846323892380    1.76329676799662
H          -0.90841025708002    2.34234941014639    1.10793181471113
O           1.12140114677542   -0.19191735871811   -2.87872230913618
H           1.47968798785765    0.54363042073524   -3.37734899540943
H           1.40916593671325   -0.05885594199363   -1.95058133051813
O          -1.42325004771369    0.26800376875035   -1.82997717537989
H          -0.70306126758412    0.09444588109025   -2.45548446258026
H          -1.81775716020258   -1.12768509203796   -0.94610700566488
H          -1.01967825247914    0.83670062799431   -1.14652294651422
O          -0.16268554639272    1.06089025985167    3.49771915185737
H           1.11057104867528    1.11448774160508    2.56399582342631
H          -0.71738482384812    1.77651668864937    3.12081272395075
H          -0.45719223671373    0.25317192165877    3.05093499616722
N           0.68126938012615   -2.48140962425625   -1.22890557585445
H           0.75149469280184   -2.27048388382446   -2.22445533154418
H           1.07715117894844   -3.38870363879693   -1.00998069189658
H           1.18713979435506   -1.69561691942575   -0.72073187834259
