    26
        -50.45737419  Gyration_radius:  2.41920379993 Dipole_moment: 10.643
 S           1.69923089634228   -0.05482111425417    0.13422879007533
O           0.82425696293647    1.11675914282150    0.04973545496633
O           2.19450145776601   -0.30777573526677    1.44936351849194
O           0.81516970397478   -1.27810645913575   -0.34387218280765
O           2.72010960119156    0.00287727036516   -0.92468131858012
H           1.97972185916487   -0.17723677206025   -2.04123979186522
H           0.13696443424876   -1.49599955646337    0.35190121575251
O          -1.12778087229441   -1.79005112587233    1.29445101515488
H          -1.58950449881930   -2.61479766397248    1.13647929598461
O          -0.79394046315539    1.05591646099680   -1.89976773701534
H          -0.19619416605529    1.11010033037984   -1.09124203786794
H          -1.01537804034215    1.96349840462618   -2.11813847657172
O          -1.09467184597508    1.83358291495575    1.84781871467860
H          -0.79116501190729    1.25852062332658    2.57951233373935
H          -0.33691203597784    1.83596742621033    1.24181018005241
O           0.13061866971011   -0.13971400319509    3.23847536620375
H          -0.35754102001893   -0.88690021307604    2.87287187991524
H           0.97881948764331   -0.13576094417833    2.76268691976355
O          -2.47976971596965    0.18828446892811    0.32681273339215
H          -1.73068666997610   -1.05467204192620    0.96032281911664
H          -2.11872713497971    0.88344810205703    0.94054518207583
H          -2.10046217161204    0.38894732881832   -0.53812434465583
N           1.23775635719522   -0.37850421283641   -2.90086461599943
H           1.00018485360358   -1.36441786401550   -2.83611688318430
H           1.63204593079352   -0.15193502093241   -3.80805255946949
H           0.38335342252517    0.19279027367851   -2.68491546132254
