    26
        -50.44450990  Gyration_radius:  2.48627221964 Dipole_moment: 6.907
 S           1.42929303779942    1.80749441273467    0.78909040170792
O           0.72280031187817    1.56140790251875   -0.44234253419760
O           1.92560848544659    3.11358096700960    1.00405050915423
O           0.49396380239899    1.35976289593737    1.96102669079485
O           2.58321666986152    0.78641482305382    0.91764092716922
H           2.15445960639383   -0.11185101112964    0.95164954944405
H          -0.44518664481727    1.28274180859689    1.64416738320663
O          -1.26274912788592   -1.58249862804929    0.66351112592000
H          -1.73597598591711   -2.39581628066027    0.84417256873773
O          -1.77842472975469    1.35956487376595   -1.52551614419971
H          -2.22667748609320    1.43657731789394   -0.67708920504026
H          -0.85069804863791    1.56504484499818   -1.32881096070760
O           1.36938684245473   -1.49266300137612    1.18695606323482
H           1.41555559560702   -1.63834886748339    2.13410546012822
H           0.41284980245223   -1.50308391259481    0.94870874638590
O          -1.98454528097830    0.88251909162814    1.31129622057445
H          -2.48963930070138    0.87751509977683    2.12653938650661
H          -1.79973748952295   -0.05953554361222    1.07440619211881
O          -1.27471290534764   -1.26641634819285   -1.83610152704952
H          -1.57848904461417   -0.33452540047301   -1.90610713025319
H          -0.30367457702914   -1.22436617942712   -2.02315701846999
H          -1.27715346496988   -1.48088321970648   -0.37074283583638
N           1.38163409893227   -0.85029416400383   -1.92069990170164
H           1.94167242212062   -0.75079241624747   -2.75741750769366
H           1.90315046409708   -1.41578824068560   -1.26200325508272
H           1.27407293681161    0.07423915571916   -1.50733318485260
