    26
        -50.46139431  Gyration_radius:  2.47916580325 Dipole_moment: 6.222
 S           1.68884226793434    0.95664061896944   -0.15621892703223
O           1.74460659586856    2.12492458758698   -0.98961244627622
O           0.84620346497388    1.08532182002353    1.02526878695493
O           1.42920008302242   -0.29395950214890   -0.85618281933282
O           3.17523047035103    0.76613339767798    0.43217581565413
H           3.63721031861373    1.53980136633554    0.12564278883302
H           0.00555734368017   -1.07875893198652   -1.25719312709084
O          -0.80344806582935   -1.61316067937074   -1.41358064169567
H          -0.74505658358899   -1.92650709582833   -2.31708968361799
O          -2.52937321026821    0.54643031032878   -0.94137019988524
H          -2.09951497438552   -0.28008908925692   -1.20717747747966
H          -1.98370676997885    1.25098062680611   -1.33379932552003
O          -0.74348345187591    2.36336978344615   -1.95464333379404
H           0.18175501729116    2.26272611295815   -1.66267721143407
H          -0.95508866576903    3.29261304392732   -1.84784770149126
O          -1.77940694003876    0.34366584143447    1.60798089220702
H          -0.91784581457518    0.77703119550496    1.51931230666312
H          -2.23040236084642    0.50760920721958    0.74732009269637
O          -1.18361801250633   -2.16336615017822    1.27214261809138
H          -1.55460632547186   -1.26185758810831    1.51332487211237
H          -1.26135579493354   -2.20265737922252    0.30509746922060
H           0.22236965238951   -1.86930311790353    1.48248495063591
N           1.24824313764168   -1.43026303882002    1.50936935746134
H           1.86814231143240   -1.85215743806879    2.19148403795302
H           1.11228969826222   -0.39821286348869    1.65609938213615
H           1.62725661863192   -1.44695503789288    0.54968952402115
