    26
        -50.44892241  Gyration_radius:  2.60991534332 Dipole_moment: 7.142
 S          -1.33076252301929   -0.73371061461079    0.00786567223143
O          -0.16754334121568   -1.50716814930191   -0.34906617201260
O          -1.26108631176175   -0.06115079442950    1.26668217624132
O          -1.59591437135488    0.29583362674140   -1.12451960197933
O          -2.57833645993257   -1.60777432474561   -0.06341540480627
H          -2.43276779110396   -2.19204319514006   -0.90708685014626
H          -0.87841702151724    1.01072527197179   -1.12207630853574
O           0.33649785584853    1.97108182895890   -1.09640851823136
H           0.47552940588408    2.39994859931583   -1.94303965878277
O           0.91207067562545    0.74930550008337    2.89139083306652
H           0.22992604568286    0.14812720617196    2.56750603062500
H           0.58341333258091    1.62923716642825    2.63288168163205
O           3.15188413023544    0.36025458458020    1.51003732417411
H           3.70647556655762    1.11130200276969    1.72507699686979
H           2.35458247640198    0.43465309243603    2.08811357429140
O          -0.53230951507659    2.64873589138618    1.52363243714268
H          -1.09454901165453    1.86287902410444    1.53420062836259
H          -0.15398262989416    2.67597999032675    0.63615816925726
O           1.99427735882664    0.05629903662985   -0.86755892720572
H           1.35243553226405   -0.65314582486250   -0.69231469372819
H           1.07635431691203    1.27399232434199   -1.00156625023019
H           2.51969601558105    0.13888503329163   -0.03737677730577
N          -1.82672384332728   -2.90941530818437   -2.12021760443811
H          -2.01725439874341   -2.48466039541226   -3.01770789633530
H          -1.95550219268926   -3.90976695988218   -2.19254253320792
H          -0.86799331111447   -2.70840463297789   -1.84864834695384
