    26
        -50.46267191  Gyration_radius:  2.63233006781 Dipole_moment: 5.621
 S           0.71580770983606    0.15969841614042    0.64482471790864
O           0.99711265556298    0.94877006091882    1.81524504382388
O           1.83397949439378   -0.68556354058436    0.21614592327040
O          -0.42879354377066   -0.84329880292275    0.97086497647934
O           0.24514190998376    0.98579720153944   -0.48109580105396
O          -1.84982339061622    2.58087369793651    0.10644959519986
H          -1.53904384881512    3.05436497491601    0.88824079808870
H          -1.07462111806298    2.09081281511791   -0.22450952412247
O           0.67367778230693   -3.04261237294733   -0.28726015238910
H           1.19937637599017   -2.26338257413768   -0.01141406819910
H          -0.13529322885026   -2.96799978179989    0.22694760332646
O          -0.78646906557430    2.60477634310009    2.78387172863175
H          -0.42118737772525    3.02321920909543    3.56424391943217
H          -0.07042198250092    2.02827217069492    2.42819366882605
O           0.32195091228353   -2.60873579507335   -2.86058462429183
H           0.71701369695236   -3.33576481363187   -3.34405131049190
H           0.36368785422347   -2.86185861439534   -1.90036510462274
O          -2.38013055869001    0.58443343834924    1.77310051045030
H          -1.23049578974524   -0.31618313030987    1.30624702045371
H          -2.01714350356011    1.12055795780237    2.49510147578007
H          -2.46277734706445    1.23378114098174    1.03549426217558
N           1.48211047788902   -0.29576004693393   -2.28512365342075
H           1.97399405428379   -0.58905946544446   -1.39746884565341
H           2.08637202574178    0.17191082827270   -2.95146318305270
H           0.99965162796781   -1.14136086871479   -2.68996362370330
H           0.78632417755424    0.36431157203002   -1.82167133285812
