    26
        -50.44729872  Gyration_radius:  2.49662586855 Dipole_moment: 4.458
 S           1.39710864666520    1.19856284970817   -0.79663484795293
O           1.65794755795154    2.57057791702083   -0.48430538252377
O           2.45655846861246    0.43915032901724   -1.36815346579662
O           0.91515154272214    0.43716551933212    0.46239115359816
O           0.15352565642043    1.18904423612291   -1.73013552878089
H          -0.45907456219565    0.39918414283575   -1.56981019679284
H           0.00496094231989    0.74375484073735    0.75599103707989
O          -1.52568888338391   -0.64622690596605   -1.21244943979898
H          -1.83718152343441   -1.10203294001588   -1.99559267424657
O          -1.51843986632012    1.14414505275266    0.92506126631174
H          -1.41961084283390    2.07684963251207    0.61029175705657
H          -1.89554870475704    0.63829789810718    0.18990640190364
O          -0.82380799335682    3.43254044437239   -0.17446417935021
H          -1.10080747349149    3.56954928639262   -1.08292947598476
H           0.14336141924528    3.27512706410684   -0.21850985326089
O          -1.12032126276430   -1.09170938929663    2.62359689064001
H          -1.92533634645642   -1.35170846877238    3.07449453167747
H          -1.27185864996777   -0.20782726619887    2.26219546030655
O          -0.45122113481954   -2.38224549554080    0.27247431645398
H           0.52754417365622   -2.35070838813754    0.08935564503076
H          -0.56741615261381   -2.03138957740094    1.17373197842897
H          -1.09350137868260   -1.37190828975309   -0.61492608005162
N           2.16803047741128   -2.20444021633104   -0.26051885386147
H           2.67428279672434   -2.19550431787459    0.61654069415049
H           2.30200625772274   -1.28799376206260   -0.68664015513332
H           2.60933681537364   -2.89025419457302   -0.86096098874620
