    26
        -50.44543109  Gyration_radius:  2.5401791817 Dipole_moment: 4.692
 S           1.93430217522874    1.31821958590756   -0.62452388445323
O           1.13842878687547    0.17263929028556   -1.00907876562326
O           2.94052850311570    1.72334824302223   -1.53080399069216
O           0.97669247215204    2.50352699750599   -0.35126882734998
O           2.50041814349458    1.03753984529454    0.79284361174185
H           2.45024470172775    0.05136459329399    0.99560821260124
H           0.39235465145267    2.18183154733226    0.38935812275198
O          -0.51218916234427   -1.15305947447112    1.82372180352922
H          -1.28601230716022   -1.51613505357192    2.25667713230213
O          -2.65439239565471   -1.41223359343762   -1.51141053449736
H          -2.84904579446590   -1.56730987835014   -2.43648916825288
H          -2.40406036909267   -0.45528728448270   -1.43210561851461
O          -0.35566249839239    1.50777976880762    1.63526383434817
H           0.19805421374311    1.73674323549134    2.38514220645677
H          -0.44239625220204    0.52429473690580    1.65288150881167
O           2.16578758913055   -1.45767440391906    1.29135297870893
H           1.30245495551274   -1.43912430006637    1.73962382413240
H           2.00544311515206   -1.88975575625740    0.44589261745086
O          -0.24710712814614   -2.10959430573286   -0.56078525454824
H          -0.49055945667987   -1.55805048567466    0.90145242576515
H          -1.14606977277209   -2.01363917224901   -0.94656708205640
H           0.26699736863274   -1.36568235407070   -0.91485067505056
N          -1.63881765135829    1.07294253017363   -1.29262109591864
H          -0.65255206161698    0.82146310530357   -1.32332237498812
H          -1.80703685850766    1.49361394163891   -0.38626726107747
H          -1.78580498781641    1.79223863135767   -1.98972374557007
