    26
        -50.44450989  Gyration_radius:  2.48625833742 Dipole_moment: 6.907
 S           1.55531026174207   -1.85390900565678   -0.27608294421708
O           0.30090680982744   -1.70043437723301    0.41605214734526
O           2.03610418065574   -3.16960946150600   -0.46632679343557
O           1.43157484242569   -1.09610030022276   -1.63958035882942
O           2.63118767949147   -1.00734403561003    0.44256175884720
H           2.32667048499844   -0.06129775361121    0.37797502381999
H           0.47592898186958   -0.93140595441488   -1.85849808021554
O          -0.63035575125278    1.83526278724270   -0.87894642190493
H          -0.89511488766607    2.72770433004241   -1.10595032643903
O          -0.97780228811105   -0.36482269784322   -2.31277386333116
H          -0.91532977791739    0.49112253048510   -1.82164348727068
H          -0.95452615988073   -0.15842688846679   -3.24906035048282
O           1.85330638442869    1.44013066113173    0.06184899827717
H           2.41590456377642    1.72360153724867   -0.66179412270639
H           0.92356274584897    1.55452037355983   -0.24535820067642
O          -2.37528148482289   -1.30216330214241    0.02956360967695
H          -1.49995523146006   -1.60941128694486    0.31415836138846
H          -2.28932416498387   -1.17926317640126   -0.92133853126295
O          -2.01978302054540    1.13995755262354    1.10447926422894
H          -1.21201698882518    1.57742257426754   -0.05708179958671
H          -2.34905592121950    0.26380284663662    0.80524856320912
H          -1.31169083448542    0.92620684732427    1.76221417598010
N           0.13869992902426    0.32744680009047    2.48905493623010
H           0.14524256144453    0.01721282452017    3.45205098211587
H           0.95747516854686    0.90507346845172    2.34211041410898
H           0.23836191709428   -0.49527691356703    1.89711705512710
