    26
        -50.44816428  Gyration_radius:  2.53773538629 Dipole_moment: 5.009
 S          -0.09348141841191    0.14095077416151   -2.20419041322657
O          -0.79707201597208    0.72556801612875   -1.08614389557792
O          -0.86687633029740   -0.54490586821586   -3.16998961963617
O           0.74000571002949    1.24372926736130   -2.89260880316677
O           0.98648807475117   -0.82803951027211   -1.64855619169506
H           1.19243936812348   -0.72375970601029   -0.66529838062209
H           1.14651183985404    1.83645367025363   -2.20116640212032
O           1.57363278013088   -0.71630619551238    0.84624068301135
H           2.31421970983019   -1.31263216816792    0.96890903231167
O           1.83115242224450    2.61369845641486   -0.96139050550683
H           2.72159844702743    2.32394637815775   -0.75257223472538
H           1.28772170758081    2.48878273242886   -0.15071245310120
O           0.32291039348352    1.70499940835222    1.07545128574698
H          -0.25490073756450    1.42611786463788    0.33212236089166
H           0.90371114780567    0.94180789723888    1.22361052948051
O          -1.46996587316047    0.48697842916599    2.80868182267837
H          -1.45624849277753    0.82905540152177    3.70316331123550
H          -0.94030331320782    1.09655646644793    2.26317844244092
O          -0.50080904153018   -1.84907760714718    1.74360395116224
H          -1.01299599975203   -2.01176223793944    0.91061609048129
H           0.75261071781984   -1.20649131380372    1.24227094070586
H          -0.97151537547718   -1.12972138164158    2.20408852705881
N          -1.74343873041391   -1.95604605919680   -0.64395183325949
H          -2.66532243160320   -2.35746722092600   -0.76825498159884
H          -1.17047075630006   -2.27130293283201   -1.41810690946733
H          -1.82960180229696   -0.95113258058833   -0.75899436353385
