    26
        -50.44715962  Gyration_radius:  2.78056525265 Dipole_moment: 4.795
 S           0.38527660178381    2.21832122406422   -2.06947897507843
O           0.23381587875454    0.97022253787191   -2.80222197916124
O          -0.72037875778432    2.47424598090439   -1.15797403886734
O           1.67978424654485    2.30398496872962   -1.41385277304460
O           0.33191532896824    3.37261570930532   -3.15030171163490
H           0.92705359262734    3.04325033314630   -3.81600656959803
H           1.90570995771599    1.21994649605706   -0.30231967320943
O           2.01562608354940    0.47148343657760    0.35064745494034
H           2.95463517328182    0.42430630064265    0.53609077830906
O          -1.47868909008609    0.54289644288868    0.21532682398064
H          -0.93989448831555   -0.17186470824330   -0.29749809240557
H          -1.28099832226423    1.40363636964032   -0.33496400167445
O           0.15221296494131   -0.93114375776322   -1.05812847443194
H           0.18460602315520   -0.33712691839121   -1.85310733823353
H           0.94782124474293   -0.69466109105543   -0.54678269341377
O          -0.24212590181204   -1.86988235710911    2.90938688392943
H          -0.87724196043242   -2.04704964137412    3.60427444694770
H          -0.60340178696519   -2.28091866700426    2.08096349230399
O           0.03480536819687    0.65782790860908    2.18423052049828
H          -0.91927443831039    0.65872284292507    1.13120970489575
H          -0.01247950468338   -0.25560578659904    2.56203416944779
H           0.86759736087059    0.68753052114121    1.67163389257981
N          -1.29862278812246   -2.88478691264063    0.63874063534817
H          -1.24044360536116   -3.89066485719906    0.54109257945391
H          -0.74517272358084   -2.47172060539029   -0.10677951594238
H          -2.26213645741172   -2.61356578967078    0.48378444406971
