    26
        -50.44816425  Gyration_radius:  2.53822463535 Dipole_moment: 5.008
 S           1.88957217639169   -0.65282476072119    0.94426057521429
O           1.50891509974492    0.11558240588194   -0.21827212685143
O           2.71838903817124   -1.77982129289736    0.73342704172783
O           2.55105175250332    0.29611510095780    1.96695253922370
O           0.59503836771765   -1.11314325906696    1.67014267162924
H          -0.24877421665151   -0.63551580845313    1.38757317957464
H           2.06144078357331    1.16492152709233    1.98184622669727
O          -1.63494711232206   -0.02605628004699    1.01641435777670
H          -2.28471365136959   -0.36955891627433    1.63197761186453
O          -1.47817719466216    1.09964642083747   -2.62566020414453
H          -1.00791222231958    1.58146109617470   -1.92116065410597
H          -2.07334861686567    1.72381421932936   -3.04209163362203
O          -0.31948024014816    1.99750624600488   -0.26908153131578
H          -0.99073317744998    1.47603929652298    0.19921291608456
H           0.41258005775485    1.36186959951528   -0.42437669666674
O           1.08686654188154    2.45265369707944    1.98106623271934
H           0.59900958084764    2.49977091276189    1.12786299356103
H           0.43185097948840    2.45585300920189    2.68204019586886
O          -1.96163810748777   -1.19573646504795   -1.20109479460153
H          -1.81434185567982   -0.51305656265831    0.12100383357213
H          -1.84872771220355   -0.48021227766567   -1.85403131936242
H          -1.13636167873760   -1.74185869807311   -1.25930233181825
N           0.45540313733313   -2.38447458142264   -1.17780836220000
H           0.99217366855089   -1.52448239622912   -1.23116065510638
H           0.77907228664012   -2.99265068154371   -1.92062809211172
H           0.71779232531792   -2.81584155126990   -0.29911197353189
