    26
        -50.45192518  Gyration_radius:  2.52801070299 Dipole_moment: 9.342
 S          -0.09974792163862   -1.63889893878778   -2.22206813635372
O          -0.08154664294240   -0.27319397914321   -2.73471205227030
O           0.10089565756975   -2.67565715888716   -3.16777483552739
O           0.82901336007272   -1.70058117335953   -1.04965947136156
O          -1.53766224625624   -1.84926164333150   -1.57354110051990
H          -1.63708495091196   -1.19665892775495   -0.86643635006294
H           1.35736299828057   -0.37529989881014   -0.84122369171403
O          -1.90383048887268   -0.26510514851892    0.70755948983683
H          -2.71605937966854   -0.67325271862436    1.01170416425191
O           1.61769921238936    0.71476236108390    2.14319526704591
H           2.04675923691675    0.90636093620716    2.97750179747990
H           0.77495860947928    1.23263586227119    2.12943951932903
O          -0.81583469042702    1.60177449764672   -1.14764470299643
H          -1.45921656809225    1.12081548969187   -0.61245840133064
H          -0.66096578934710    1.00663736887089   -1.92910787987149
O          -0.69192917467324    1.98016642494293    1.80201875657963
H          -1.26699105882513    1.23203708213195    1.56208006302901
H          -0.69026827758197    2.55822866784105    1.03331444037793
O           0.13661098202620   -1.61711521583495    1.48898281037348
H           0.78978194251382   -0.98649198851028    1.82737725968309
H          -1.14975855960043   -0.82535291423039    1.08321301740335
H           0.44223644284059   -1.86670316602941    0.58791434502395
N           1.62363518706342    0.66708651233615   -0.60106712398367
H           2.34785341351482    0.98637411538941   -1.23427215277254
H           1.91233829170050    0.72906894365761    0.38555441002062
H           0.73175042447667    1.20762461974376   -0.75988943166797
