    26
        -50.45192517  Gyration_radius:  2.52801903141 Dipole_moment: 9.342
 S           1.50226254050177    1.55795864422637   -1.71742057513454
O           2.32768446551915    1.36402916035770   -0.53026192116918
O           2.14219001804407    2.11643365501751   -2.85235873714012
O           0.79044701031725    0.27079804866289   -1.99574913294685
O           0.33320728579530    2.54811299929668   -1.28692664737218
H          -0.15891460175894    2.12425402576831   -0.57004070060557
H           1.15462641051046   -0.66239955109825   -0.95871068680546
O          -1.40997586313350    1.37411931034920    0.56512555365201
H          -2.09193844262973    2.04708156746427    0.53588290604769
O           1.14131023742912    0.72275102962748    1.65028964473425
H           0.29760166148415    1.17199000901235    1.51604555939028
H           1.73549595248869    1.11574497461446    0.95649936817002
O          -1.33377686351603   -0.80376149910539    2.28523863386027
H          -0.49622663635168   -0.63584201696709    2.72726555257334
H          -1.53398531516255    0.01128471321253    1.79170594464076
O          -1.11118378687187   -2.53132510693801    0.28073533066146
H          -1.64162795443200   -3.32134903033154    0.38734670178959
H          -1.27590846678654   -1.96677710593349    1.07618815449278
O          -1.70228368754163   -0.29554980650288   -1.36587499359126
H          -1.59162415330336   -1.18540780147095   -0.99880507151511
H          -1.61131663940697    0.73651842960263   -0.19417922363777
H          -0.85364380206793   -0.07969238281252   -1.81402551383723
N           1.31759455373974   -1.30403985567515   -0.07729246587054
H           1.26951411456834   -0.64035827949012    0.74128553071588
H           2.23559123371810   -1.73010704078974   -0.13331333317266
H           0.56488072884531   -2.00446709008781   -0.01864989793501
