    26
        -50.44715968  Gyration_radius:  2.78070136435 Dipole_moment: 4.791
 S          -2.10103221540559   -1.93473846280558   -1.09315336421636
O          -1.62298656003736   -1.14088876730503   -2.21516531335227
O          -1.02473944970822   -2.60561848462750   -0.37878766832585
O          -2.95747500964464   -1.15914787775713   -0.21122575225897
O          -2.99116531909730   -3.08533753958190   -1.71537234463780
H          -3.53967850535785   -2.60021444994625   -2.32336043788488
H          -2.22821192302889    0.03672002440566    0.49612413207829
O          -1.72737596503478    0.81645353381429    0.87002208988363
H          -2.39448641548475    1.41631679345053    1.20679687984924
O           2.10716880222569    1.87903951337936    2.01193580426366
H           2.94281266190047    1.78274058921692    2.47029551884262
H           2.31105300240481    1.86383204855416    1.04044414591860
O          -0.03302111543492    0.65271826562147   -1.25746170789722
H          -0.62146037743847    0.05256960473661   -1.78615393693315
H          -0.61097930039000    0.99962824289908   -0.55315619421217
O           0.99699832937534   -1.23499349789653    0.09545552061251
H           0.22955098607848   -1.91400850236555   -0.08623445810498
H           0.73601888834076   -0.44367020970113   -0.51270247258695
O           0.40385038895842   -0.13033093900947    2.24226594480242
H           1.01662504804641    0.64601365965047    2.27601976838558
H          -0.45565764373566    0.22594324567286    1.93979199673471
H           0.80700583779553   -0.85313520701781    1.08698032837129
N           2.66558368740003    1.71031189424417   -0.62681432370042
H           1.76355925524968    1.55706388921444   -1.06903950716557
H           3.25586664243775    0.92295761900966   -0.86672709251844
H           3.07217629959124    2.53977501414058   -1.04077755594182
