    26
        -50.46277197  Gyration_radius:  2.51603257817 Dipole_moment: 5.068
 S          -1.38916040861224    1.57221413649477    0.61592429471952
O          -0.46149751130129    2.45802278847969    1.26170642241846
O          -1.05724385607655    1.27257089369255   -0.77575368953576
O          -1.66148235399178    0.34067651026481    1.35343903963541
O          -2.78168100884509    2.34151284922140    0.57254166107733
H          -2.52321129410658    3.24761973798636    0.70724778656725
H          -0.26077558392556   -0.41963183512141    1.77439720693244
O           0.57737190311459   -0.91367597218293    1.93219905141101
H           0.59072952207181   -1.13101297970133    2.86578422973956
O           1.91304971250596   -1.42517332575425   -2.05732424014134
H           2.86282097555626   -1.54752500807558   -2.07171486857176
H           1.76870200484869   -0.44626337188355   -1.94474891736627
O           2.01152898929107    1.34610090000324    1.06821547216568
H           1.23289542249113    1.91206197916848    1.20903508552091
H           1.75579811741359    0.47809654429988    1.41125921826231
O           1.55848997690259    1.12756386235357   -1.57302435416246
H           0.61079809236995    1.29910107017301   -1.46106105451632
H           1.93484284220244    1.27009457757013   -0.67833223572064
O           0.37288616550303   -2.55456735634331   -0.25795693968812
H           0.61787130049441   -2.09653410609441    0.56648098246857
H          -0.88770047878389   -1.86082572570292   -0.61546538158711
H           1.00452568924613   -2.22709815899672   -0.94876599697224
N          -1.76429244892586   -1.20769110969903   -0.74238292965837
H          -2.10528755779374   -0.95940623344484    0.20237397496847
H          -2.47953198015938   -1.61407221639572   -1.33478018916137
H          -1.44044623138440   -0.26215844030330   -1.07929362794498
