    26
        -50.45146360  Gyration_radius:  2.53127388186 Dipole_moment: 7.042
 S          -1.07019436969357    0.10968407531977    1.69816016029585
O          -0.65426575269558   -0.86466081833313    0.70515263590893
O          -2.46883022715719    0.36615964483549    1.73504830901831
O          -0.53245102754013   -0.29681636863560    3.05670161866323
O          -0.27658831983232    1.42107262850930    1.42963801564211
H          -0.13837016508895    1.61539563280893    0.44777042870430
H           0.52413615137223   -0.41986161413076    2.90673194714968
O           0.20473254477001    1.91874505613100   -1.02971354361076
H          -0.00864121667480    2.83135106994241   -1.23026118643203
O           1.70138859888404   -0.36783103667304   -0.32857103348124
H           0.82408835298284   -0.67214565589593   -0.00605294872942
H           1.55051856311807    0.54364981651229   -0.61204534017431
O           0.90647136531254   -1.31485860238732   -2.81312408679876
H           1.30012338977517   -1.13419996358127   -1.93950087954098
H           1.60793219267874   -1.22553495057593   -3.45940672858069
O          -2.85495237230588   -0.70061215730034   -0.85213731654997
H          -2.08875087189495   -1.05482146644616   -0.37449272213949
H          -3.33088114353437   -0.19640059251405   -0.18437257136570
O          -1.17134515810299    0.46631436168168   -2.60328460791790
H          -0.55273067148503   -0.25898185017790   -2.81313627004341
H          -1.89636679851308    0.05366925002910   -2.08733042052252
H          -0.36318187611384    1.35219250620443   -1.66734594073665
N           1.94694492345098   -0.52619913271197    2.57191598509631
H           2.33069444081567   -1.40007574580061    2.90688242658811
H           2.45811939881897    0.24142538339667    2.98719834578495
H           2.05240002814895   -0.48665946043384    1.55557574380259
