    26
        -50.44715967  Gyration_radius:  2.78027095311 Dipole_moment: 4.790
 S           2.89467358546349    0.63607673524289   -0.75183186531032
O           2.29384447011358   -0.03913584969937   -1.89230097771525
O           2.14298200085335    1.80972483741805   -0.33179034239442
O           3.15141515745694   -0.28343844943346    0.34431095467873
O           4.29723565786642    1.17446938267975   -1.24805031675478
H           4.65143235658123    0.41252926866945   -1.69508993113569
H           1.85636379387176   -0.91954779613117    0.96062554184482
O           1.00343687100050   -1.33704408093821    1.27185201698345
H           1.26148838827176   -2.10583518312478    1.78245628046595
O          -3.02057852776275   -0.44358861100879    1.64244949612915
H          -3.03829128365036   -0.49070597912237    0.65092126056788
H          -3.78277719999087    0.07246179907130    1.90764304492086
O          -0.32721786317330    1.54061413781592   -0.20438901986784
H          -0.36160178110725    0.62942771424593   -0.68672737992671
H           0.68283441339357    1.78357610752451   -0.26532794110584
O          -0.06804317217032   -0.79355178250962   -1.17350336476160
H           0.16853531665442   -1.24069704881976   -0.34012598209062
H           0.80464546649343   -0.59856405628649   -1.60494936131030
O          -0.65107636002086    0.64112369912087    2.09053320073753
H          -0.01175703231129   -0.09428800962480    2.00337955535104
H          -0.49180738915982    1.27538301371018    0.82889189381444
H          -1.54639041837453    0.22180459851141    2.04661610210259
N          -3.01313646826518   -0.45578024776539   -1.05981047504532
H          -3.12656920732643    0.46397958187174   -1.46861947738494
H          -3.68480347861170   -1.07414397796376   -1.49708057257003
H          -2.08483731610349   -0.78484979346355   -1.31008238019250
