    26
        -50.46385738  Gyration_radius:  2.4099111222 Dipole_moment: 6.531
 S           0.44717236360537   -1.10454930681249   -1.10245754284758
O           0.23635061095829   -1.57270559188298    0.37021503656457
O           1.77013580676697   -1.65237377421946   -1.43264567188872
O          -0.62789158515623   -1.58347417774436   -1.92841283016194
O           0.50236640465220    0.36129181809223   -1.06309614457088
O          -1.52444547340989    2.13662257582313   -0.94349229158937
H          -2.27647357401120    1.56633796376673   -1.14571174587426
H          -0.74809828148998    1.59104135447964   -1.16095950471169
O          -2.85070483037177   -0.32797433514596   -1.33775303672049
H          -3.57796933641403   -0.82918030747068   -1.71013275675670
H          -2.02643493583291   -0.77676609233396   -1.64630978026796
O          -0.95106747402421    1.78351694061452    1.66170820551287
H           0.00883072659065    1.69718702862958    1.63827871824482
H          -1.21423483878892    2.10614195184889    0.77068631788616
O           1.86377180552618    1.32143819112164    0.85522698472583
H           1.29155956396288    0.99341000328480    0.09625148847562
H           2.27296463310724    2.12984837750455    0.54067873655961
O          -1.92928159728901   -0.63157691435515    1.20321444537116
H          -0.67957230208725   -1.23546515234270    0.73042217365673
H          -1.64513887466739    0.26634555077678    1.51418759070758
H          -2.43674491686891   -0.48253198929809    0.38177602751391
N           2.85976962520309   -1.15292501154281    0.76984925126245
H           2.63578635691965   -0.13654677147312    0.92183470850884
H           2.28857687534068   -1.70569201539605    1.40652899238214
H           2.46234054578512   -1.40567594474803   -0.26630131924733
H           3.84843271199729   -1.35574439117725    0.87641392726552
