    26
        -50.44037728  Gyration_radius:  2.60723633362 Dipole_moment: 7.521
 S           1.66509843410117    1.00323914970851    1.43574923058526
O           0.44910624937496    1.71306257603339    1.16101090970945
O           2.34053604775194    1.27182326973704    2.65040312037494
O           1.34451069493701   -0.53440066725257    1.33171284390012
O           2.64840066904847    1.18334775111867    0.25112128938434
H           2.11654584442757    0.98734392935007   -0.56213887067863
H           0.34643915512707   -0.67624256384564    1.36090954088652
O          -1.18291084206901   -0.98055234081898    1.39122686512419
H          -1.40871251024159   -1.48954752750813    2.17147031533702
O          -3.16128604618827    1.43917559607943   -0.90256463575895
H          -4.03415192691580    1.08610649271911   -1.07888047028363
H          -2.51981628605318    0.76132955009589   -1.20999964845810
O           1.30664623927498    0.35293130393756   -1.82414569641195
H           1.55327653797365   -0.60983971172698   -1.66999327159610
H           1.66381645296094    0.61228660286859   -2.67554789361392
O          -1.34179408491387   -0.49445068260736   -1.38565354625789
H          -0.50182755415379   -0.03965693008208   -1.54462974234522
H          -1.29269019241154   -0.83201361374017   -0.48108844466401
O          -2.17722023310197    1.35596639793475    1.61443039245568
H          -2.61310203238014    1.53057873698991    0.75226672919174
H          -1.62919261341793   -0.06544601693811    1.51123207650549
H          -1.30472392473943    1.77962087614041    1.54875516391543
N           1.89727925699309   -2.11943673213572   -1.11308734611725
H           1.90058213067446   -1.88357670219708   -0.12408405076189
H           2.77945336604999   -2.56176425483683   -1.33635634547800
H           1.15573718788780   -2.78988447902352   -1.27211852494981
