    26
        -50.44724325  Gyration_radius:  2.48576887849 Dipole_moment: 2.976
 S           1.71386922678917   -0.73176278535676    0.16831347126318
O           1.42906420211320    0.64076292932542    0.48185467404090
O           2.57641160424149   -0.98443829006745   -0.92983141505891
O           2.27158450161113   -1.45216865702523    1.41667296368848
O           0.35994708343559   -1.45519217200784   -0.09471443590172
H          -0.36323858774486   -1.09630303006181    0.52460798975542
H           1.64470409581569   -1.33604408145571    2.17877442578108
O          -1.47064476997553   -0.55252324334897    1.45704827508126
H          -2.23904204011880   -0.54109656606365    0.87114547285835
O          -0.89784298141217   -0.36122587691761   -2.44204059837572
H          -0.52072586569171   -1.09800258291561   -1.95105766130946
H          -0.14064708415641    0.26036290812391   -2.58175505138483
O           0.42705166073645   -1.35054099568468    3.25844186531136
H           0.27367499337240   -2.22483887948407    3.62333027360675
H          -0.38978354313560   -1.07989035690591    2.80812906214592
O          -2.50976425730253    0.83843084639013   -0.73502202730733
H          -1.93145029217339    0.39060302822045   -1.40500875345024
H          -3.23502571054969    1.21919747806637   -1.23046053005565
O          -0.82878699433952    1.92767470224496    1.19259401041745
H           0.08272282682372    1.69979042838860    0.94081822372955
H          -1.35900658386055    1.91476308619676    0.37921526767872
H          -1.23780985694999    0.42772734045756    1.52652203657270
N           1.33012888499512    1.14664300953893   -2.43476857574651
H           1.93695037245724    0.38803839667732   -2.13402960064161
H           1.30765062699657    1.80494799272253   -1.66513638944391
H           1.77000847805097    1.60508538096554   -3.22364297322771
