    26
        -50.46152701  Gyration_radius:  2.59903369413 Dipole_moment: 7.385
 S           0.10446940972773   -0.71565955185017    0.09635939722800
O          -0.28812100974858   -1.83101388166417    0.91992285116082
O           1.22107594359022    0.04270607673085    0.66178662300147
O           0.38390842446225   -1.08168111653668   -1.29711746623279
O          -1.09046834250906    0.27668574374665   -0.04858680281343
O           2.00374364131039   -0.51269403806519   -3.47303094594338
H           2.52908996728618   -1.19671431979542   -3.88949104342610
H           1.58557160494497   -0.92339352075030   -2.69774425966639
O           1.53512803561138    2.35090628080322   -0.44538284973716
H           1.41221919000660    1.51962917372284    0.08853956285717
H           2.48361181284168    2.48165430325004   -0.50334311855908
O           0.43564821686188   -0.23121713893785    3.19152434324840
H           0.87559386392866   -0.08564207713138    2.33239436910122
H           0.25648250818955   -1.17536351184048    3.21900367694504
O          -2.64959778897498   -1.96321558024555    2.12937641175172
H          -3.26994773569733   -2.35045785984650    1.51080863496286
H          -1.76705415814406   -2.03212266944588    1.70740431218725
O          -1.93009398851572    0.63288455215364    2.30693811948845
H          -1.45636431017655    0.48914431059909    0.88847397841757
H          -2.42191150541843   -0.20565706029273    2.40975597736391
H          -1.09495027103516    0.49248123924295    2.80939831237472
N           0.20973802190919    1.23163521816829   -2.41120506725763
H           0.12980895456432    0.26530529279304   -1.93631630420447
H           0.73310539632043    1.83390439437420   -1.70443779716026
H           0.77794175751348    1.07728426491358   -3.24855551259382
H          -0.70862762896950    1.61061146582486   -2.61647542247902
