    26
        -50.44350453  Gyration_radius:  2.47223317146 Dipole_moment: 8.428
 S           0.67081151449482    1.67086332405996   -1.29617759804117
O           1.60574009584578    0.58490553578524   -1.37429326058742
O           0.97081374869411    2.87747277790497   -1.96889696700320
O          -0.72919549524586    1.12641436394785   -1.74328563990323
O           0.42117127105797    1.99782667298885    0.20490622349864
H           0.03415208264547    1.18421787537414    0.66474867224462
H          -0.63178803403533    0.14509702334955   -1.91809728071355
O           0.41466125472974   -2.27032559337358    0.29076330003409
H           0.50377205680693   -3.17842144102970    0.58247119048720
O           1.97335671408480    0.68741941439026    2.34782515788324
H           1.94457690012310    1.53354112224329    1.89208874866321
H           1.05388794050960    0.41843742546564    2.46078651557629
O          -0.63658078321375   -0.02301686869876    1.38459558235451
H          -0.32598709903153   -0.87840319497154    1.02791961726471
H          -1.56063025469534    0.10384080285436    1.06046979500828
O          -0.66548503076357   -1.43715036738766   -2.01461405096450
H          -0.17256741727255   -1.78448164770894   -1.23854364955642
H          -1.54973016526312   -1.80668175736406   -1.96992201833736
O           2.69268891026563   -1.10303295166354    0.39864623567341
H           2.53099670229275   -0.51032014384915   -0.35763905458739
H           2.63739635319268   -0.53043796953990    1.18834597929272
H           1.35033271358846   -1.87654212851941    0.31923808604501
N          -2.96001839540993    0.62427852921794    0.17343407412165
H          -2.48671429447695    0.99650449582934   -0.64590669546648
H          -3.36149802265308    1.40802157584407    0.67339452385342
H          -3.72416325629296    0.03997313484160   -0.14225750684728
