    26
        -50.44724323  Gyration_radius:  2.4856400173 Dipole_moment: 2.975
 S           1.50905307309235   -0.79371897896661    0.77017276358879
O           1.37558522864118    0.62954734006452    0.62929491136375
O           2.53472550055122   -1.42957047122682    0.02360075310536
O           1.67671871910285   -1.16182279587299    2.26167477118301
O           0.14718574666418   -1.44415769561718    0.38589011381256
H          -0.62735822229883   -0.85888893180740    0.69112055070366
H           0.92809289241034   -0.77536889595481    2.78849132362150
O          -1.81064453498701    0.02659445768134    1.14523110135020
H          -2.42698693490767   -0.06816658911000    0.40695240272894
O          -2.14242214919608    0.79728410472475   -1.52137031463967
H          -1.51048141070200    0.12519287064669   -1.88585896035217
H          -2.68169972506980    1.07554900599657   -2.26177067213370
O          -0.40787434075082   -0.98292552825649   -2.40132979217833
H           0.44664710847798   -0.49618903513148   -2.51143530996101
H          -0.25771762228611   -1.57284195517435   -1.65595795861774
O          -0.47771339770114   -0.36978792162438    3.50099234559377
H          -1.13088509106455   -0.17339852878501    2.80954797835820
H          -0.83506529332929   -1.08300467539654    4.03459716338948
O          -0.75932701318103    2.25624130756420    0.39941724371200
H          -1.10228247672832    2.05143854011429   -0.48561183009578
H          -1.45177629915102    0.96056354709089    1.00805450860864
H           0.13939785797065    1.88719215554013    0.44797393754269
N           1.97013374488242    0.26603107555510   -2.24938049988570
H           2.63042172216141    0.43286677842779   -2.99915487821745
H           2.37787118032677   -0.41963552404417   -1.61869484296941
H           1.88640174705414    1.12097631355499   -1.71244681960860
