    26
        -50.44837132  Gyration_radius:  2.40352917868 Dipole_moment: 1.443
 S          -0.18221960764767   -1.79021676604678    0.58807065327327
O          -1.34841519144184   -1.79576883059729    1.42635038667741
O           0.26576280550554   -3.01261842519994    0.02433111366512
O          -0.45981135540669   -0.79134062492489   -0.57674934936546
O           0.99679367622146   -1.16200564944981    1.36069385459473
H           0.86192927442705   -0.17050070188567    1.49902569706143
H          -1.28785623995304   -0.23862618178223   -0.41851049782790
O           0.71097476478200    1.36251162977098    1.53271284098986
H           1.39315111881083    1.76347280486191    2.07484957525521
O          -2.56409009490553    0.65797374452931   -0.24756621819588
H          -2.43012525258135    0.83992072974106    0.72957036412895
H          -3.34763223083942    0.10708816060932   -0.30499279551508
O          -0.72074222678144    1.44824218296124   -2.34907733285083
H          -1.44860165986011    1.54107695354298   -1.72306552783379
H          -0.65044065032895    0.50826511504271   -2.53556332474994
O          -1.90290066530975    0.70297251318279    2.24662672807329
H          -1.76589948330355   -0.26322401004503    2.20011115658986
H          -1.02328726739959    1.10528553341002    2.20097820825340
O           1.57132534469165    1.43183925900395   -0.85135098037033
H           1.85925423566693    0.50021869111768   -1.01318648462106
H           0.81845486704931    1.58413098835060   -1.45435901411184
H           1.02522993833121    1.48049546140017    0.56080024684485
N           2.32467376553313   -1.18519259169294   -1.22927746494027
H           3.13798959208077   -1.35951578011966   -0.65086976162490
H           2.56823823326068   -1.44512612351276   -2.17796288297804
H           1.59824430939818   -1.81935807226070   -0.91158919044173
