    26
        -50.45146373  Gyration_radius:  2.53124977695 Dipole_moment: 7.049
 S           0.73873553814254   -1.59488232202249   -0.97542458836031
O           0.10651504036544   -0.31710647408943   -1.25092563347635
O          -0.03639105934881   -2.73414566179645   -1.32842444142650
O           2.11313376894881   -1.62416892840223   -1.61601746857316
O           1.10074447365759   -1.62210121233132    0.53775094491640
H           0.41090716648199   -1.17599325419108    1.12601565597858
H           2.60809784426801   -0.74792877694638   -1.24090287112381
O          -0.54623922168198   -0.41591996530004    2.07393542187686
H          -0.75695069300598   -0.96634575836283    2.82975072468759
O           0.71133098850333    1.54820107203800    0.48669938924715
H           0.46976216763520    1.08041139520196    1.29708758612688
H           0.42673843725224    0.94695020471023   -0.23703261381760
O          -2.42970170041536   -1.23503813671675   -1.39406852476675
H          -2.13236944784672   -2.15039138902401   -1.41275398856240
H          -1.62371970939098   -0.72461479031006   -1.56878755532384
O          -1.83119763652195    2.64787995823141    0.31927771555938
H          -1.92767074509013    3.39141809716337    0.91554555195993
H          -0.88258708491043    2.42342836292515    0.29569959847422
O          -2.74363088464160    0.12743567209112    0.90969029908638
H          -2.79225370517734   -0.39810482794473    0.08286923851700
H          -1.44096471725115   -0.21480418605890    1.61646616141645
H          -2.60663561073365    1.05129397055962    0.62598534415444
N           3.17285122887987    0.46139773258921   -0.63453852188096
H           2.42182668141696    0.98681339619396   -0.18113445855097
H           3.60552903586817    1.04788902740454   -1.33589983845849
H           3.86413982464478    0.20842678440588    0.05913686238893
