    26
        -50.45315594  Gyration_radius:  2.46437935485 Dipole_moment: 6.333
 S           0.44518725763478   -1.71558966992073    0.99775734262069
O           1.56120523823735   -1.20740146658793    0.17879394139043
O           0.66449868457985   -1.61093309147469    2.40656962592475
O          -0.76994022765815   -0.72648664475336    0.64409500941547
O          -0.00972765670841   -3.00106467426375    0.48501939741185
H           0.13427591706780   -2.82881105764599   -1.03235824157207
H          -0.62652541277783    0.04213769204466    1.26929428967006
O           0.01053137180344    1.02962590131842    2.35512664005874
H           0.30697497748193    0.25491416930768    2.85670722255348
O          -1.63587722789645    2.67869744066099    0.83544514927208
H          -1.20301594211537    2.14802823877848    1.52205135295569
H          -1.56650698389356    3.59213239138372    1.11862690132913
O          -1.40308202904878   -0.34288701193725   -1.92065305229327
H          -2.34155057022213   -0.20657488844431   -2.06164498879795
H          -1.27856893948190   -0.43460097398781   -0.95054511144393
O           0.05630571419666    2.06490283973427   -1.25359327936220
H          -0.60427385017788    2.36041042122544   -0.59986536821417
H          -0.34109687080571    1.30918669815722   -1.70151834467657
O           1.91719964298903    1.42581904987765    0.63982379948464
H           0.81078307382303    1.31496440508325    1.82142611055787
H           2.01405605159830    0.47144910327622    0.47209023343963
H           1.41011560553741    1.76959751169455   -0.12291072247816
N           0.51616561237515   -2.25908684785060   -1.86656475420173
H           1.19268342265470   -1.68039141182639   -1.27447170978699
H          -0.22305861812803   -1.63491732605844   -2.23032936285671
H           0.96324177893198   -2.81312078777872   -2.58837207040368
