    26
        -50.44350448  Gyration_radius:  2.4723156183 Dipole_moment: 8.428
 S           0.23764594161803   -0.94434673802614    1.99310116702649
O          -0.90596834451617   -1.49572291272478    1.32405963964116
O           0.50357124386396   -1.33886581308982    3.32428883287618
O           1.48909291219101   -1.19916745243446    1.08449052206999
O           0.12795905155856    0.60775360120450    1.95637432120128
H           0.11661824908386    0.91955703222647    0.99417343565089
H           1.16899956521729   -1.63505332965184    0.24147883423948
O          -1.11049783199786   -0.39078764926293   -2.00567011555895
H          -1.53532830059349   -0.36436312585027   -2.86385191939953
O          -2.28238670545302    1.95879153540463    0.91340549133040
H          -1.88377811327964    1.74988055207395    1.76308722893655
H          -1.55083818996360    2.19650874504774    0.33128859637007
O           0.77390068058600   -2.12221711580684   -1.21445812872117
H           1.46441013847411   -1.98560018919308   -1.86633819767508
H           0.00284017767418   -1.58348356966480   -1.49919209877860
O           0.17704843506097    1.43840138567292   -0.47302795676946
H          -0.24816833540659    0.81770098426937   -1.09695655109076
H           1.15129741722341    1.36666427234067   -0.61707031760775
O          -2.89065895779501   -0.48819578735889   -0.16583665613634
H          -2.90372283833047    0.41319954569972    0.21080313253363
H          -1.86164728236075   -0.46739857834142   -1.32645006241901
H          -2.35629123181817   -1.01589493186459    0.45501044465920
N           2.83429402085343    0.96680131188870   -0.46516896841502
H           3.28224584241048    1.72284807372370    0.03793498140724
H           3.45597575726775    0.68801972794226   -1.21401291575274
H           2.74338669844522    0.18497043575427    0.17853723039519
