    26
        -50.45437379  Gyration_radius:  2.51034956454 Dipole_moment: 3.447
 S          -1.78662181775099    0.60110674316881    1.67183082087653
O          -1.14316613107838   -0.68871611242784    1.89017783058608
O          -0.81770937090568    1.67215154776421    1.53197646963577
O          -2.74599649271004    0.55265291872214    0.58681366799627
O          -2.61378207977893    0.92215269930786    2.98014736537923
H          -3.36341455905333    0.34767888540113    2.86874657476761
H          -1.91509939764635    0.82367790004681   -0.75616818085533
O          -1.38481265126490    0.89231355769141   -1.59054965897165
H          -1.88691339401569    1.46544312155319   -2.17227151374207
O          -0.51536910368048   -1.61007156398455   -0.59067520955927
H          -0.90005767153621   -1.42636254028906    0.28453911428056
H          -0.92033061872931   -0.95791541661532   -1.17549139969348
O           1.41764667452706   -1.16584536988916    1.48821399590725
H           1.21868529089659   -1.60846683854659    0.65290247316892
H           0.53222077064521   -1.06400518470701    1.90107293626959
O           1.59824383738749    1.31636231872312    0.96320977739184
H           0.65023053871726    1.55992333485089    1.27095301469491
H           1.68285993576248    0.32096106734308    1.20533283176811
O           1.29292698687576    1.25599400538720   -1.49186752429375
H           0.31624595685088    1.20663484698016   -1.56632226639227
H           1.53200379231218    1.35835840443978   -0.12675242796060
H           1.63051130154647    0.35294201497342   -1.75285208666458
N           2.01729105068411   -1.26337677139973   -1.99012047400206
H           1.17460583828534   -1.70814914326272   -1.63240209814381
H           2.81295964022514   -1.63508828592339   -1.48703701386442
H           2.11684166343424   -1.52035612930668   -2.96340699857998
