    26
        -50.47289144  Gyration_radius:  2.42618776422 Dipole_moment: 2.397
 S           1.39522628450515   -0.75846965295359   -0.71384055187294
O           1.32328918737662   -2.18230179842766   -0.49586766404883
O           0.42562487562869   -0.27899402186633   -1.69228407735867
O           1.33470861913148    0.01069189771954    0.51722870578405
O           2.82758510276935   -0.48564628137749   -1.34691591690194
H           3.15862771415713   -1.37224919750264   -1.44132929164253
H           0.31769005141731   -0.35948552667102    1.76335043702096
O          -0.35588414362414   -0.57367568142011    2.44923988274254
H           0.08940043623837   -0.49441706768269    3.29411379514456
O          -1.06742483741447   -2.55782648175419    0.65826101256268
H          -0.91558555356499   -2.10195066259946    1.50163409847081
H          -0.18950168870946   -2.60248609100422    0.22740104562004
O           1.46463153709144    2.17482601354420   -1.98866753771966
H           2.40678341410754    2.01622440282032   -1.90739234098798
H           1.05182926243488    1.29435533379045   -2.00803789271003
O           0.25211146788039    2.49149702636402    0.47128960040106
H           0.49255328155464    2.75878259459842   -0.42928608771555
H           0.75243885728796    1.66756353237257    0.60429967830728
O          -1.99997780317748    1.28725151875903    1.18012591344835
H          -2.11587109626156    0.27823581323649    0.02516868877907
H          -1.60449284954508    0.72368403829723    1.86515732233384
H          -1.27180210333012    1.89997410185399    0.91371147444767
N          -2.00799119719886   -0.51007145726161   -0.70424279557895
H          -1.12454622777209   -0.33545542350385   -1.23947355879431
H          -2.81018279279741   -0.57214979806964   -1.32069518434900
H          -1.82923978812312   -1.41790714133592   -0.18294875547375
