    26
        -50.44350449  Gyration_radius:  2.47225378165 Dipole_moment: 8.426
 S           1.90262780111414    0.85252428747390    0.75689510494377
O           0.85274318802892    1.07860824706736    1.70879039104173
O           3.17724134752315    1.41216445107743    1.00310920134040
O           2.01624709658816   -0.69447547348598    0.53232742799482
O           1.41565743965340    1.34192591181572   -0.63798372466380
H           0.59498366053699    0.81628710543147   -0.90894918070775
H           1.29325502089000   -1.13322451471200    1.06879196192119
O          -2.09201151383097   -0.61472341914798    0.80942732611514
H          -3.00639483034163   -0.85903097140925    0.95744320507887
O          -1.15400279607209    2.75999027951596   -0.96405382971886
H          -0.21544652820781    2.96646186444494   -0.93323208401061
H          -1.22482523556949    1.93094888695312   -1.45212662719254
O          -0.62126423729065   -0.02810781164235   -1.39183643993445
H          -0.13477823609822   -0.83339828001629   -1.69167299889388
H          -1.19265715913332   -0.30271958040405   -0.64789073946925
O           0.07013672708769   -1.92850446343512    1.68950834341314
H          -0.74167022924747   -1.41333895664843    1.48601973582354
H          -0.05287292210057   -2.80195064883577    1.31226968424030
O          -1.71842133591457    1.81031582379040    1.54631867208403
H          -1.99943110436608    0.33595570419614    1.15459605975771
H          -0.79321717315749    1.68314428716052    1.82435099026587
H          -1.66722082806789    2.31525590117102    0.71148259290884
N           1.08218094430947   -2.04269609050231   -1.96002579161567
H           1.71786939368034   -1.78193995058399   -1.21049637472537
H           1.54058474953202   -1.82347908642992   -2.83593012160441
H           0.95068679045196   -3.04599350284648   -1.92713277439772
