    26
        -50.44837135  Gyration_radius:  2.4035307552 Dipole_moment: 1.442
 S           1.10246669759366   -1.42613543424334    0.57843756326054
O           2.34345697996227   -0.81301482981194    0.96160406311352
O           0.78309359296375   -2.71069225698239    1.08897635514042
O          -0.03858604853173   -0.44439074533953    0.98548028322316
O           1.02156844125088   -1.49244442575012   -0.96124090458136
H           0.90819753556657   -0.57365117069738   -1.36554258310831
H           0.31293992742841    0.46044932038903    1.25732208547666
O           0.55575009502060    0.81440769359943   -1.93361385881465
H           0.57779707324366    0.80920896606709   -2.89253465538000
O          -2.06057819505366    1.58003885653000    1.17949356563627
H          -1.22789042803295    2.04567293085078    1.32152615477255
H          -1.97414331086296    0.73825173553712    1.63467569005545
O           2.55178172098524    1.62047513775114   -0.16053472338151
H           1.99010147931132    1.50590615504249   -0.94095318540093
H           2.73362011072006    0.72349079409514    0.18122254456632
O           0.78070707542733    1.89218228108103    1.69687563138330
H           1.48380087083348    1.99119328497685    0.98857023137175
H           1.25556040787263    1.82816952987306    2.52822378485007
O          -1.85768360108181    0.39411474562955   -1.28001831949687
H          -2.06029841992782    0.90757260994417   -0.47443867775444
H          -0.43771729794004    0.73868749740452   -1.67945577383599
H          -1.85224761053628   -0.55339196189389   -0.99853477679797
N          -1.75246710674497   -2.23771811525202   -0.49134087610141
H          -0.96521659231908   -2.39713132424641    0.12973196802810
H          -1.59147102885472   -2.80163397369813   -1.31744583554794
H          -2.58254236830872   -2.59961731085282   -0.03648576065124
