    26
        -50.47289142  Gyration_radius:  2.42608579118 Dipole_moment: 2.393
 S           1.58146802429906    0.69465444993196    0.21960125125260
O           2.36918243418569    0.46619080448192   -0.96670174137832
O           0.52989684998191    1.68677992492414    0.02694913963858
O           1.05857386189791   -0.52968638855032    0.80145648688193
O           2.57761334254977    1.31479959033415    1.29212072043929
H           3.37308598833420    1.39848678047681    0.77758069544936
H           0.44575046117842   -1.76911297461032   -0.09944959200309
O           0.02353282991830   -2.45033173547003   -0.67195594869560
H           0.32522022827800   -3.29861265314760   -0.34369390489648
O          -0.08937994127355    1.99062292512503    2.61784420317045
H           0.76141787203285    1.89725435538414    3.05007143510280
H           0.10209107192611    2.00787688790820    1.66442409821778
O          -1.28607720727342   -0.45354279320455    2.15262621844156
H          -1.24006098809867    0.44657115697165    2.51027838088030
H          -0.39561429200500   -0.59786267188907    1.78770270378833
O           0.65592851361124   -0.66717502208908   -2.68966976864866
H           1.39355672416184   -0.24537590736549   -2.20344235545117
H           0.49611976385735   -1.50846235523129   -2.23261738189128
O          -2.38864433944617   -1.15060824878607   -0.15465963551421
H          -1.74416275611544   -1.84399158266501   -0.37188771212342
H          -2.16475500159670   -0.88646902591119    0.77089980947143
H          -1.86671860166079   -0.00269491611250   -1.03466424672516
N          -1.30202787000170    0.71969782628628   -1.60443673916309
H          -1.90227068281388    1.34328679571506   -2.13190180551879
H          -0.62460295323451    0.18986720990105   -2.22749030455718
H          -0.68912334271581    1.24783759756747   -0.93898400613577
