    26
        -50.44822604  Gyration_radius:  2.46521739752 Dipole_moment: 5.216
 S           0.77413775350285    2.01893521283706    0.38982376312415
O           1.26071522764672    0.74924201393622   -0.11694384792094
O           1.66074289885180    2.74200558400944    1.22425923245481
O           0.32077917988630    2.86320899764490   -0.81820413597732
O          -0.53269235438683    1.78375483312792    1.17958793483363
H          -1.07716088795076    0.99150784135550    0.87773938174915
H           0.27274861557722    2.25868226660424   -1.62924701328634
O          -1.96130187638767   -0.26428243427375    0.61111051851809
H          -2.76883408853897   -0.17935407399434    1.12172845936178
O          -1.60256098289565   -0.66952921640543   -2.06172002893005
H          -2.45935495535778   -0.57508763831843   -2.48091761616173
H          -1.74258121594798   -0.56843027175548   -1.10092347341253
O           0.36692193230493    1.08150187303997   -2.64870762368845
H           1.09045365558850    0.66873031615830   -2.16165213966375
H          -0.39145835749878    0.46676220391560   -2.54290414936977
O           1.46380836634305    0.03868066475935    2.50042722170438
H           1.56168104668827    0.88903946286210    2.93401910615043
H           1.60439141460244    0.21449731143023    1.55990645832245
O          -0.42388454706358   -1.85930549874914    1.82774850554795
H           0.20793042072382   -1.27876988442708    2.28735328048026
H          -1.37577109774806   -0.95106914291492    1.11890670034841
H           0.06499658207273   -2.18349911707718    1.03024285896556
N           0.80532194638571   -2.14313761402538   -0.54245685993029
H           1.14513431768417   -1.18831538278578   -0.46779489403038
H           0.14678700290254   -2.16857205478479   -1.31199950290053
H           1.58905001303727   -2.73719626220106   -0.77938210627192
