    26
        -50.46062509  Gyration_radius:  2.50515542013 Dipole_moment: 6.262
 S           1.72266147780279    1.00294039153287   -0.26307021285609
O           1.45519008304982    1.29739951920568   -1.64320575201909
O           0.71479708837078    1.46993835606505    0.67483809044634
O           2.04210520525369   -0.41016925957310   -0.02245629674787
O           3.05204799772569    1.79642500996590    0.10992197781770
H           3.40331560615254    2.01733255494501   -0.74627096070502
H           0.89894777818463   -1.45731876511721   -0.57047032149922
O           0.15659989099624   -2.05883062942511   -0.81274619859320
H           0.54985680840626   -2.82366199940671   -1.23589784055944
O          -1.95862425344894    0.78722078795565    0.98598831925985
H          -2.43484018591688    0.86992034553568    0.13235709339073
H          -1.09329081633963    1.19781181432926    0.83839841807428
O          -2.89626950528088    1.05547789536497   -1.52114045717448
H          -2.94246890085925    1.94492874538634   -1.87386423933910
H          -2.14773926977553    0.61623733103346   -1.98842743959731
O          -0.70634041220561   -0.05351161827180   -2.56811778787287
H          -0.57267712386004   -0.86537128368930   -2.05691107687279
H           0.05662439516453    0.51364073137837   -2.35706484320787
O          -1.22506017315531   -1.65208236814579    1.54124875743526
H          -1.69081310181057   -0.78721975201878    1.36108263118024
H          -0.93754573797572   -1.96786676508809    0.66745102327740
H           0.00306254120804   -1.08378281220029    2.11923266523568
N           0.92923370867193   -0.51074484773341    2.32332695653586
H           0.72963379322887    0.46965779947445    2.01695612224565
H           1.63238840075712   -0.78828387495984    1.60988216245191
H           1.25920472564031   -0.58008731653589    3.27895921972900
