    26
        -50.44926947  Gyration_radius:  2.40444327979 Dipole_moment: 3.108
 S           0.08666772125978   -1.90711556235578   -0.56150242758750
O          -0.28621558417161   -1.86398266694106   -1.94738793802302
O           0.89239599948320   -2.98919195249376   -0.10864272504858
O           0.80942916958965   -0.57646754840035   -0.22626451818835
O          -1.18795695842123   -1.88093663524066    0.31074520012839
H          -1.59589649388582   -0.95373274980176    0.33561619762808
H           0.80799543163952    0.08407319395836   -0.99039810228472
O          -2.06009712891065    0.49815797943303    0.47264855432482
H          -2.86673814216290    0.56104964635887    0.98796941495862
O          -1.74364346726911    0.37952631293967   -2.30617389464103
H          -2.04732083816555    0.55004440052126   -1.40276714267969
H          -1.42654579898959   -0.54279850753776   -2.32198741836802
O           0.75960687829834    1.06335817152614   -2.20493438727721
H          -0.22685174484683    0.99661512370776   -2.34489943767967
H           1.15497247059522    0.59559945306394   -2.94426265528274
O           0.80545896647441   -1.71764355246317    2.32655847874510
H           0.99866363738668   -2.18320522915904    1.49839969519920
H           0.19093406546410   -2.27813241732651    2.80520830014530
O          -0.15226254714361    0.90429711476136    2.08673139357155
H           0.52603886783331    1.42481672820393    1.59199277671744
H          -1.29459096290722    0.75046523916068    1.11703517685494
H           0.24141770426631    0.01988670409516    2.20733005107630
N           1.70647809607037    2.19906762172717    0.57808899829178
H           2.46361394517847    1.52760255020506    0.60582755372255
H           2.08092147272569    3.11020165421116    0.81002811580043
H           1.36352523059976    2.22844493787499   -0.37495927004721
