    26
        -50.44837132  Gyration_radius:  2.40354323498 Dipole_moment: 1.442
 S           1.59156590863118    0.29831559334425    0.98082536515774
O           2.06670265693602    1.58288869312636    0.54843755344664
O           2.03640730621458   -0.21660492113318    2.22569761209687
O           0.03442922765720    0.37332731736659    1.01491226124535
O           1.90224640014174   -0.75166956587722   -0.10671462125712
H           1.33467714371492   -0.61021944087467   -0.93028663204923
H          -0.31904563839624    1.20815666180123    0.57396737328532
O           0.33092447144986   -0.47709243045309   -2.09169633810537
H           0.55703101913400   -1.06995259237712   -2.81102334579695
O          -0.94705788435205    2.48256120013055   -0.09150107218289
H          -0.72762298225273    3.25456579484158    0.43441326087218
H          -0.32526630042102    2.50315451872787   -0.87813201302525
O           0.95768063902065    2.22608758137858   -1.81380783178761
H           0.77220714738031    1.34492268065371   -2.16992228523057
H           1.57722390063851    2.09686170688396   -1.06954352242353
O          -2.78823917662904    0.31756534047853    0.50987853074536
H          -2.29911272168383    0.23107216850791    1.33238548969120
H          -2.47856793083147    1.13449952431662    0.10117948179218
O          -1.37183357271902   -1.70631774826735   -0.67096816716849
H          -0.42702489791815   -0.94355405177999   -1.57678709623904
H          -0.84142733039549   -2.00328678558778    0.10844902675708
H          -2.01602605522557   -1.06100734990763   -0.32132526124385
N           0.16809122920646   -2.47374500518171    1.47367941945814
H           0.72754843113666   -1.69706534032637    1.81226740670246
H           0.81668819217853   -3.18181464469887    1.15067260952391
H          -0.33219920257954   -2.86164891511045    2.26494279572143
