    26
        -50.44966748  Gyration_radius:  2.50257857957 Dipole_moment: 2.522
 S           1.51141529862950   -0.29094677762391    0.17586112264609
O           0.33265187661970   -0.66842960960364    0.92155733233043
O           2.42748209805467   -1.33115347495449   -0.13190230923058
O           1.05980282234505    0.34216779968592   -1.17185533976687
O           2.19658965602999    0.87393622806962    0.90057302579695
H           1.66954400036944    1.06261713874006    1.76794935697123
H           0.33026363462611    1.00700302396880   -1.00187524585876
O          -0.97294631523018    1.88959320527593   -0.74874953139183
H          -1.33761134170594    2.25044559198134   -1.55966381461916
O          -0.93640621279769   -1.42687287448438   -2.42122471207897
H          -0.55605790762015   -2.20976700388766   -1.95071567403935
H          -0.18517463289326   -0.84483390218156   -2.56598708649720
O          -0.66326472987274    3.16376658834851    1.66373256509309
H          -0.84374882644522    2.76666429875262    0.79281348429909
H          -0.10789341824300    3.93040447680212    1.51251466417979
O           0.66594643763297    1.18729804949035    2.86495590028001
H           0.10933717292302    1.95114986418768    2.58359861590027
H           0.17707106709909    0.38996632591121    2.61970878114685
O          -2.07526783598866   -0.34426993621677   -0.27788031041756
H          -1.86544847639627   -0.79802886293070   -1.13023514518683
H          -1.37530080107797   -0.64005896321053    0.32805441168299
H          -1.54141522476690    1.06507765845094   -0.52551742658972
N           0.33558278163017   -3.21159442961626   -0.85643495046645
H          -0.15877164738754   -3.31820569886502    0.02109501136314
H           1.16920304859855   -2.66327717765054   -0.65669206166764
H           0.63441750639624   -4.13265153776670   -1.15368069297369
