    26
        -50.46062403  Gyration_radius:  2.50523032854 Dipole_moment: 6.269
 S           0.45441510297030    1.35980731309028    1.41085331357720
O           0.39122896685362    2.46986660842585    0.50163719798069
O          -0.75705355421486    0.56144737004863    1.49742336556910
O           1.62837313433189    0.50270900248269    1.19832985688273
O           0.65713089731710    1.98514110468514    2.86119388346893
H           0.93905874674406    2.87179316996149    2.66239896590213
H           1.77206353601174   -0.06635977551130   -0.33816579175388
O           1.78176966858105   -0.47837349942751   -1.23351027528948
H           2.68942009284350   -0.44797037315176   -1.53987973573351
O          -2.29158275428525    0.71812563547956   -2.46031333149366
H          -2.88347776493812    1.46289770399390   -2.34861631616538
H          -1.37887688657647    1.08801941351669   -2.42060977855321
O          -2.07287969917857   -0.98892145676767   -0.39278132937516
H          -1.77285189801821   -0.34586343365708    0.26723187143008
H          -2.24338007022674   -0.46699889455279   -1.20568046604593
O           0.17663834144695    1.65726775882803   -2.07627353663629
H           0.73279189479640    0.86761003199451   -2.00322942518426
H           0.21333721527092    2.08133418954138   -1.20038828855776
O           0.03927237056126   -2.50848550204782   -0.55476861520031
H           0.65809551324762   -1.92524354504087   -1.02666310949174
H           0.29156330705072   -2.19859034923473    0.86179453577204
H          -0.84711538228753   -2.05394106743041   -0.62605800350809
N           0.43108465204834   -1.70948445274217    1.84601975471365
H           1.25078783970894   -1.07431501098918    1.76557079794895
H           0.48060502313410   -2.35306334873291    2.62718375098183
H          -0.34041833334725   -1.00840860251631    1.92730070867310
