    26
        -50.46247232  Gyration_radius:  2.42016423957 Dipole_moment: 7.260
 S           0.63954744664590    1.24940802422251   -0.02768961511104
O          -0.35146947985128    1.01138790499164   -1.07231081527821
O           0.08163774249720    1.86864687996419    1.14823336246005
O           1.20660384434041   -0.16885101307321    0.37228940313959
O           1.82546420976439    1.92186728444270   -0.55715868459241
H           2.35399234648569    0.89893687333518   -1.39251298078985
H           0.49754146108592   -0.87027703902242    0.33323432252008
O          -0.51683752446963   -2.08874686087326    0.11346904680090
H          -0.28133447896721   -2.80124252588472    0.71069087415083
O          -2.59820119179703    1.49678728982183    0.28320405413668
H          -2.15871371826155    2.04275696520201    0.94239324733939
H          -1.90686330413669    1.34323948841899   -0.38646403682763
O           0.34887871356421   -1.11200513311772   -2.37541771723594
H           0.06591715260573   -1.76952983060970   -1.72360781835417
H          -0.08429247973008   -0.28254508555225   -2.06013313186344
O          -0.59150505279908    0.11621069910735    3.01974635038536
H          -0.27380287034315    0.76227868531776    2.35259627769350
H          -0.73353906152319    0.61675553460716    3.82446094434513
O          -2.45088117045628   -0.96293538004536    1.35995074587431
H          -1.90161169057018   -0.67574883471856    2.11439956857701
H          -2.70257837621270   -0.12770723368517    0.90854352159245
H          -1.35667947438861   -1.68090724241962    0.51225812727671
N           2.67656729950016    0.00934127731433   -1.97976332306540
H           3.29448951946922   -0.54350186453902   -1.39303814773171
H           3.14362752517608    0.29138730351942   -2.83622346952307
H           1.77404260237429   -0.54500613671884   -2.19115010591187
