    26
        -50.46247237  Gyration_radius:  2.42024263744 Dipole_moment: 7.259
 S           0.61547904391281    1.10851365603482   -0.60268997712187
O          -0.00241115831617    0.14531899111141   -1.50847961935282
O          -0.28014114199226    2.16676002823238   -0.20845099587637
O           1.03167525250279    0.29637298403313    0.68583258465243
O           1.90652245225406    1.57051609019078   -1.11119866373834
H           2.66898086722229    0.37350433684618   -1.01293515133570
H           0.37053965228567   -0.42155424055659    0.89499357783863
O          -0.52446159003797   -1.71389441796142    1.19650654806336
H          -0.48448714777653   -1.90777945222612    2.13488611213464
O          -2.55934578472172    0.88547405166357   -1.31764231306097
H          -1.69473802116900    0.51150428355402   -1.56778013344362
H          -2.34540052912307    1.77724672345524   -1.02654935357188
O           1.06937375223017   -2.16951981407270   -1.07300157407946
H           0.59868874191827   -2.38425154377625   -0.25468626837334
H           0.55905840598180   -1.40368923110360   -1.43107636096032
O          -1.49961121410485    1.68696543018342    2.09585340022976
H          -1.88658310720963    2.51704639702790    2.37786692078457
H          -0.99077445291276    1.88951338910781    1.28132279851582
O          -2.75037230245804   -0.46130445868504    1.00234624195277
H          -2.85084325020460   -0.08977827617558    0.09874618514268
H          -1.44690991007885   -1.31549188721635    1.05122225309828
H          -2.46204661647846    0.29667993851870    1.54624725169443
N           3.15857419405371   -0.61411431017111   -0.85455527022849
H           3.86843019826739   -0.78342980388032   -1.56069118627002
H           2.36672256778538   -1.34630445265080   -0.91279733782574
H           3.56408109817072   -0.61430441147266    0.07671034113406
