    26
        -50.45970662  Gyration_radius:  2.46574710006 Dipole_moment: 8.966
 S           0.53232080158665    0.60002671386092    1.96339792784445
O           0.29029782340507    1.65952156402273    0.98383835566001
O          -0.60522718164056    0.23528517569444    2.74627392059886
O           1.18060582424219   -0.54922652096335    1.31531205321747
O           1.61892703542140    1.19145117998945    2.95674302792762
H           2.26379964741400    1.60536195838525    2.39079001548973
H           0.08447403931098   -1.61547894349179    0.77738705022786
O          -0.56958530952321   -2.23688254885926    0.37364834662709
H          -0.37866977963904   -3.10088464843934    0.74089075246457
O           2.29005888246130    0.95958871319021   -0.45760462923825
H           2.18318712016755    0.16634426656363    0.10948601643523
H           1.58075383897067    1.52666543308416   -0.07500039174975
O          -1.91031782907004    1.10821736856785   -0.49300240955755
H          -2.44339288601770    0.58994243384661    0.15159661926724
H          -1.15461336389430    1.43815419006646    0.02740887080241
O          -2.72931915831387   -0.64723356295458    1.34347885489387
H          -2.13080855446480   -0.29162354012864    2.02431404311277
H          -2.25593376992943   -1.40858975941585    0.98167886014773
O          -1.02619953248283   -0.85147538603135   -1.90683797285809
H          -1.46625411703662   -0.06932354326662   -1.44129773890051
H           0.17784606006937   -0.28889067841232   -2.35104192223128
H          -0.87543527898072   -1.49678618672432   -1.19098081002769
N           1.12480272933724    0.24128128206305   -2.68828127023012
H           0.86139382100981    1.06487341852192   -3.22011892854995
H           1.69675760114771   -0.37316948194180   -3.25769277474740
H           1.66053154643422    0.54285108277680   -1.80438585661643
