    26
        -50.46983910  Gyration_radius:  2.51169634275 Dipole_moment: 2.832
 S          -0.09878238074190   -1.31746679518735    1.73872437018579
O          -1.50215455395375   -1.61263099223693    1.55625953871942
O           0.74922069616607   -2.07632767470892    0.82500264457911
O           0.20030155732038    0.10494002557318    1.69922686108309
O           0.28101066291506   -1.79048304589668    3.20182467249456
H          -0.12037982764021   -2.65184195011540    3.25406929122153
H           1.80206727947770    0.22697206368404    1.03052990129871
O           2.59612165026504    0.01200003590144    0.50814090551710
H           2.62061972313493   -0.94989239577799    0.51468592434658
O           0.05252945061204    2.80256926360938   -1.45769298264491
H          -0.44137263038840    2.53129058257441   -0.65999974976030
H          -0.59997368590503    3.04076587008538   -2.11741653679368
O          -2.33092011821704   -0.35805406970488   -0.62183412624110
H          -2.22974161234878    0.55666122220970   -0.31620113063629
H          -2.22287875504871   -0.89675227395583    0.19142347496712
O          -1.39123432478541    1.89378176280981    0.66837896827578
H          -1.67116544736756    2.47927768376919    1.37374290993370
H          -0.78115684093699    1.23790805690722    1.08735111217122
O           1.69622014869409    0.70188537249654   -1.92126495393299
H           1.21703772690797    1.54685611161939   -1.80584854120918
H           2.20030427811368    0.56803596368299   -1.08705486211158
H           0.67708157798323   -0.41826075419800   -1.79901005617284
N          -0.01010971025371   -1.22095982024583   -1.55481141867691
H           0.33185316732679   -1.66531939915777   -0.66402810833991
H          -0.04894683807688   -1.90567572526078   -2.30192427987800
H          -0.97555118304591   -0.83927910804907   -1.34227383843349
