    26
        -50.45970661  Gyration_radius:  2.46571543377 Dipole_moment: 8.965
 S           1.61604085545394   -0.42050861537424    1.30750953338462
O           0.42728776156151    0.19806130316883    1.89458912469009
O           1.63999906678305   -1.84745534093410    1.36368907988128
O           1.84582130899600    0.10845645656475   -0.04467639632913
O           2.83318959680453    0.10663314049584    2.17818360608776
H           2.66674029844613    1.03822510962663    2.28743552000388
H           1.10628458945246   -0.79978650194678   -1.16540038128190
O           0.59831923626648   -1.29430833781387   -1.85410256056691
H           1.23973642968352   -1.57811322700733   -2.50662598333615
O          -0.41111657278247   -3.08028402934698    0.12665784203830
H           0.35064538869475   -2.85052859251117    0.68807746368340
H          -0.18151918795411   -2.73003815106648   -0.74470541402598
O           0.72687655186553    2.35561435684064    0.54482182635575
H           1.32165413969904    1.74658715563518    0.05719958134025
H           0.43052348808149    1.74896895436723    1.26263383995300
O          -1.82167967009278   -0.96273648940960    0.93326261823860
H          -1.49994716062363   -1.87545979649843    0.75501010757076
H          -1.08058287114625   -0.53082523092506    1.39686731780392
O          -1.79154945882050   -0.07813817179422   -1.48291810176750
H          -1.57952810743931    1.28295590143991   -1.22557878292147
H          -0.97540799348290   -0.51414140966930   -1.79192171665422
H          -1.92942842281257   -0.45010168949532   -0.55303128557175
N          -1.42945991557645    2.37205446899650   -0.93797318917766
H          -0.53626511610497    2.42990203332837   -0.33939807912869
H          -2.22591829085883    2.67222433249101   -0.38465101024843
H          -1.34071593409163    2.95274234083933   -1.76495456002165
