    26
        -50.46449932  Gyration_radius:  2.65282433655 Dipole_moment: 5.981
 S           0.93961194893984    0.20872343614535   -0.78951480363523
O           1.23418160105978    0.51279518660133    0.61842916606725
O           0.47534612145494   -1.17255210934942   -0.92058692117939
O          -0.02098718464773    1.15768941910247   -1.31622688328266
O           2.27594285320014    0.34141374412685   -1.56566056694015
O          -1.61643549512805   -1.10122621211651    0.67634383639706
H          -0.95096766372468   -1.22396901397502   -0.03832831101786
H          -1.17369327186207   -1.43409563412441    1.46874929275283
O          -1.08153469685327    0.98958226403410    3.79506394267362
H          -0.46362020952487    0.27750423191429    3.52607924513589
H          -1.77974102410705    0.56861679635388    4.29898698330295
O           0.43403246503857   -0.95551891039586    2.64726539814180
H           0.80628565098733   -0.45594120598117    1.87915283729970
H           1.17892292716984   -1.40953898414781    3.04385136443748
O           0.23742601838036   -1.73641670272474   -3.50571124122603
H           0.24321378103352   -1.59545567110571   -2.53472918831171
H           0.83184834763139   -2.47044878869145   -3.66984631400388
O           1.04480161874158    0.82113634913068   -3.76349404092642
H           0.39458921154357    1.20726881489282   -3.15436395078552
H           1.99375743415786    0.55214305880779   -2.50653177882334
H           0.71635414195274   -0.08449577833031   -3.94046533642445
N          -1.16874779286659    1.44068008126855    1.15752994156906
H          -1.55968493938136    0.48213107161445    0.88952266365576
H          -1.28461410813553    1.57018742256228    2.18468081042541
H          -0.14427126494262    1.33165166519481    0.93761344167883
H          -1.56201648010446    2.17813545919972    0.58219043302490
