    26
        -50.44450982  Gyration_radius:  2.48699066699 Dipole_moment: 6.919
 S          -0.51738817008985   -0.06579432001873    2.38097870628769
O           0.48302331319494    0.60686494801933    1.59167395617413
O          -0.69590440383970    0.37024217233627    3.71375861732400
O          -1.86153631314376   -0.00274744577356    1.58240289223504
O          -0.22912702167822   -1.58485757225217    2.36634214117059
H          -0.29457673725639   -1.86821570873713    1.41403180199866
H          -1.81535705680111    0.70204706058115    0.88269625654475
O          -0.84549863782667   -0.30065599681872   -1.92980670046651
H          -1.07853667805385   -0.53747353970346   -2.82853669052928
O          -0.60715628819682   -2.26288321663764   -0.11178445908164
H          -0.65006620094019   -1.52180917827562   -0.76043362046750
H          -1.48305235931371   -2.65351455605964   -0.08627324975914
O           0.83247680295293    2.56051446299979   -0.28724917682126
H          -0.11095961739966    2.70098575511101   -0.41704352254084
H           0.88645175653352    1.97526489282835    0.48491064102730
O          -1.89284973254831    1.62997501271173   -0.44869360069971
H          -2.81324314504818    1.76464521896127   -0.68227194291432
H          -1.52788515713239    0.95384777781234   -1.07112084848556
O           1.50952552483118    0.59322359468179   -1.99521512183849
H           1.95951855241304   -0.02231808605776   -1.36421691324094
H           0.12864791515812    0.05720231628947   -1.98471619921553
H           1.40635051901038    1.42986625736051   -1.49021665742574
N           2.30304198855842   -1.01467276011560    0.01050649656017
H           1.86970962796989   -1.92979978693243   -0.00971355608527
H           1.79420988525762   -0.45400396236127    0.69160195128839
H           3.25018167338818   -1.12593334994997    0.34838879897484
