    26
        -50.44966746  Gyration_radius:  2.50249420148 Dipole_moment: 2.520
 S           1.36579358315768   -0.33603892860480    0.64956151230766
O          -0.00535704618032   -0.50541278531372    1.07296683661555
O           2.21731037536485   -1.46339320673081    0.79068275168156
O           1.37094023782875    0.06299366872344   -0.85436209183951
O           1.94297513467640    0.90294870391427    1.34483124399009
H           1.22032409123543    1.27564226722047    1.98085226921723
H           0.69637774995287    0.78649175505542   -1.01143986363750
O          -0.52649032267802    1.77030334777139   -1.29049698492748
H          -0.61429924533947    1.99557356784503   -2.21910423700446
O          -0.02753959952998    1.65413993391692    2.70599106770133
H          -0.51086317898062    0.85346394725904    2.46062226703053
H          -0.40191647578785    2.38291546467331    2.15721468322014
O          -0.37796323981079   -1.79304668188972   -2.32737494335033
H           0.44069001115891   -1.28937089047970   -2.33984888106573
H          -0.22599884791648   -2.49610957720375   -1.64792578026910
O          -0.75977458897220    3.44709746242796    0.87143600243203
H          -0.10643422786138    4.14073633469784    0.76619488434112
H          -0.73499151245209    2.90715875433625    0.06110448670960
O          -1.94296189309041   -0.27584044856277   -0.80697962986817
H          -1.47142015217788   -0.49330349391213    0.01459692281807
H          -1.21740372622507    1.03297065106066   -1.11201361869764
H          -1.55521086049445   -0.88872852094039   -1.47817530618605
N           0.21980905083836   -3.32725632741936   -0.19649701824589
H          -0.50511537831626   -3.24316180537617    0.50585886856618
H           1.01935063988917   -2.79839965661887    0.14486677767263
H           0.49016944171602   -4.30237352582693   -0.24256220925241
