    26
        -50.45970585  Gyration_radius:  2.4654777619 Dipole_moment: 8.982
 S           0.55872769134207   -0.26084053051018    2.02871798703081
O           1.45392411059979   -0.80775122400704    1.00889193532070
O           0.88280800458096    1.05990668644776    2.46491511893422
O          -0.84069668056957   -0.40234301693264    1.60110352941556
O           0.71461266419139   -1.22239660951112    3.28089325516268
H           0.67428296659041   -2.10262856690614    2.91857820699027
H          -1.33844157682806    0.90451552464036    0.78216830544607
O          -1.63400186532358    1.65758019796792    0.21418846128272
H          -2.42461497227491    2.00830146809439    0.62621015104519
O          -0.29299460011414   -2.49927411359446    0.20305547871021
H          -0.85586235270484   -1.88573739594072    0.72154499653065
H           0.58649607257385   -2.08466951926746    0.36458608399645
O           1.78713663818781    0.94721745734085   -1.02434844544495
H           1.79838137716718    0.27831102025270   -0.31492825514279
H           1.67436216527630    1.80266370498835   -0.55121579834792
O           0.89818531282300    2.93012360715408    0.52524682432789
H          -0.03903166189612    2.81532375355553    0.31761563313353
H           1.02868867588708    2.41980942188205    1.34425610858916
O          -0.53980344169937    0.81052308798708   -2.11279061084329
H          -0.67137061685420   -0.58101524079809   -2.20202155427821
H          -1.07037077674029    1.17241442469170   -1.37855042237685
H           0.41546546392581    0.91388830590730   -1.79730929929653
N          -0.69703867918466   -1.71600416946382   -2.26175930914588
H           0.06913370964627   -2.02547481137758   -2.85144217706869
H          -1.58113811596226   -2.03542170853654   -2.64284966892838
H          -0.55683954263880   -2.09702176406641   -1.26475652504743
