    26
        -50.46907322  Gyration_radius:  2.47604468762 Dipole_moment: 2.913
 S          -1.39069539642999    0.82546343820144    1.53800858236112
O          -1.91484698903069    1.85152856631637    0.66863821213526
O          -0.13239214532200    1.20698324353130    2.16941513774420
O          -2.44451412458734    0.65352018201682    2.71222886645828
O          -1.29696109955753   -0.48337930031104    0.90776819131936
H          -1.62458312530502   -0.63219712416348   -0.69516650769105
H          -2.60500044117700    1.56146872130938    2.94558714852259
O          -1.72392966488468   -0.72298364048887   -1.67307999681948
H          -2.60983630271379   -1.05356747464107   -1.82512443793463
O           0.67267569328551   -2.33837671808309    0.76848122577352
H          -0.18381127071882   -1.90427130723917    0.93044788779439
H           1.51876344114582   -1.10001083556789    1.10630095155949
O          -0.47608485312055    1.72957062842471   -1.54761380341969
H          -0.95746890613653    0.97392666535701   -1.91925655451721
H          -0.96698281672732    1.93656530625742   -0.72472450150640
O           1.93671397358488    0.81767429196173   -1.32517845202991
H           1.01383059984611    1.20844905027680   -1.39101037247592
H           2.50840182109173    1.41582070158764   -1.80750970930659
O           0.83891609897235   -1.76147878857451   -1.83186094830049
H           0.76491793119383   -2.35018085173727   -0.21393420076398
H          -0.08592357821148   -1.49401371461413   -1.96045172231909
H           1.34470037880847   -0.93687982884427   -1.81047426292200
N           1.89969762724817   -0.09645937984148    1.22659724283087
H           1.10726983367716    0.46476243336902    1.66845606468252
H           2.07485725870955    0.29654999084917    0.27988595847280
H           2.73228607635141   -0.06848423534233    1.80357002035065
