    26
        -50.44450981  Gyration_radius:  2.48702343532 Dipole_moment: 6.920
 S           0.52657330448780   -1.73360924292351   -1.63061633387146
O           0.48822644397858   -1.69117277769416   -0.19081252785746
O           0.58909906260909   -3.00646348222492   -2.24236148510968
O          -0.70068494872505   -0.91623009408069   -2.15415420677356
O           1.70320198103951   -0.86144580769784   -2.12635897317236
H           1.51028411787616    0.06418652449244   -1.81422733754174
H          -1.37234011264688   -0.79897849841157   -1.43056168412335
O          -1.04988717704170    1.83457607618982    0.24796129751923
H          -1.36749310875969    2.71930365099837    0.43367620166988
O          -1.20353080466880   -1.45276690912571    1.94232028633792
H          -0.51650019639948   -1.71515008774928    1.30922418103035
H          -1.97658302860878   -1.27314109962483    1.39754258763222
O           1.02274666377207    1.54762485878611   -1.43548901957860
H           0.28496717350374    1.61821909773699   -0.78550514358834
H           0.69527105539420    1.91296832625642   -2.25993267826999
O          -2.49342976201802   -0.30023077248375   -0.36566399769302
H          -2.02536032550091    0.52885375082888   -0.09863377446260
H          -3.28353353935844   -0.04006929270313   -0.84301978400892
O          -0.06558687992417    0.94514666827351    2.39022581987264
H          -0.64472762913614    1.49556094618194    1.14297137018430
H          -0.50237981452536    0.06668448784065    2.44652735325350
H           0.85889495026142    0.74327573078614    2.10019498174867
N           2.21678478930318    0.20392251363543    1.17397966913953
H           3.04614410519805   -0.15638637468300    1.62779402275133
H           2.51240753491150    0.84249457790026    0.44563735147034
H           1.74743614499258   -0.57717279049884    0.71928182344156
