    26
        -50.44410011  Gyration_radius:  2.49523119888 Dipole_moment: 7.232
 S          -2.33247726814771   -0.76121857368698    0.27057117509363
O          -1.13337386590603   -1.13442317288223   -0.43824487354535
O          -3.30182575815452   -1.76820624513179    0.48262856710720
O          -1.89522863281504   -0.10787961624813    1.61824251540003
O          -2.98110356707320    0.44523727463956   -0.45031810869499
H          -2.26095860488162    1.12034241165125   -0.53011690249022
H          -0.95858560899552   -0.36876896582426    1.85074564350420
O           1.27212052616839    1.49992168676659    0.64606060602352
H           1.91136500073074    2.18309928365596    0.85348090705740
O          -0.12177025744481    0.30422440826419   -2.51440210403533
H          -0.50569246444718    1.15870404208076   -2.29798027510327
H          -0.51141402628222   -0.32549891049193   -1.88233610921849
O          -1.03879285685531    2.19985259807497   -0.49900950700296
H          -1.35508524915870    2.96603110989148   -0.01681335841726
H          -0.20184372678291    1.91122256327864   -0.05895536331064
O           0.57120311671135   -0.48106444429599    2.29518072071565
H           0.63943841873135   -0.13446535343075    3.18736697726885
H           0.91755575348865    0.21384413653050    1.68816033295828
O           2.25259073939840    0.15731069984728   -1.24969031808098
H           2.17325705596840   -0.76122113982822   -0.88471837645300
H           1.52810573230614    0.21725239543386   -1.90845389806343
H           1.69559989486525    0.95867823564769   -0.13347182372904
N           1.57437256872750   -2.18204400103988   -0.12479022400307
H           0.58698393059560   -1.98675273060996   -0.27695685002381
H           1.70811852470913   -2.22405028445960    0.87818688947250
H           1.76744065450521   -3.10012738784221   -0.50436622245860
