    26
        -50.44307977  Gyration_radius:  2.50788085058 Dipole_moment: 2.707
 S          -1.63727629238454    0.52517185071709   -1.50258251195167
O          -1.26383658201204   -0.84219189485055   -1.36480538948054
O          -2.85284287578517    0.96831918299236   -0.91051048688035
O          -0.49313210745159    1.44401418029602   -1.05899608729375
O          -1.73364368856100    0.83111082118194   -3.05594202612256
H          -2.38351683242611    1.52369237143119   -3.15029773003574
H           0.44360711064195    0.98741665996470   -1.16566196047301
O           1.79288943481666    0.44368217920446   -1.21851863084636
H           2.39055513154786    1.11729907113564   -1.54920841089027
O           0.16366447130272    2.04424449090179    1.73680340968014
H          -0.50619786543317    1.32450535059617    1.86448862272731
H          -0.05237191550843    2.41941180827267    0.87944464306562
O           0.80546815255052   -2.05365911557799    1.48762536411989
H           0.87398715685982   -2.23769968726653    0.51773423416722
H           1.18031697574944   -2.81384699302947    1.93390055138882
O           1.00923517134252   -2.29330093714729   -1.15177686793427
H           0.10635923346847   -1.98939745632261   -1.33727809432936
H           1.56676584379971   -1.53980548902550   -1.38085243956156
O           2.11761496966822    0.31400117142124    1.27382262334450
H           1.98765010816316    0.36566254041224   -0.19473330847271
H           1.49262562231379    1.02068903200954    1.57206102540109
H           1.68234987746824   -0.52982417651470    1.51125589950019
N          -1.52313721799533   -0.03851429084348    1.62984291262330
H          -2.18247619866303   -0.26049833417203    2.36528793881589
H          -0.93603139948108   -0.85481202974709    1.48976675248580
H          -2.04862626395321    0.12432967400593    0.77912996695185
