    26
        -50.44283664  Gyration_radius:  2.54460761519 Dipole_moment: 6.566
 S           1.47690561975969   -1.93067070517796    0.25046675586284
O           1.72844095475849   -0.52314624617847    0.36866062141244
O           2.39593264741703   -2.83141360323986    0.83845582233193
O           0.02123102771775   -2.19368160233597    0.80009295006763
O           1.27179501242619   -2.28918947746917   -1.24021159296196
H           0.75520352474677   -1.55219329512221   -1.66914951115682
H          -0.06180425951049   -1.74034977921932    1.69389447752385
O          -1.43504077231924    1.18707481099932    1.59813585325723
H          -1.87898250658208    1.93425961935889    2.00063241499710
O          -1.95477212399657   -0.63724620267639   -0.37380169507715
H          -1.47648814869980   -1.37000821303500    0.04253562953866
H          -1.89109739252097    0.10157766295845    0.25876725151178
O          -0.26891455517329   -0.50340636716730   -2.35649266965028
H          -0.96746803348233   -0.45663147580720   -1.64361912785796
H          -0.67367294112520   -0.95880773244517   -3.09785272215759
O          -0.46405720356687   -0.89545712811328    2.95652308576916
H          -1.19021467072624   -1.29594938387930    3.43929852131259
H          -0.81275276068730   -0.07087135488774    2.54058410380889
O           0.82647846057839    1.99709296325466    0.73868747455851
H          -0.54442068402818    1.54441462174981    1.25548881819276
H           1.31017147468931    1.15369281322125    0.73721698177851
H           0.76778033968722    2.24013503688998   -0.21490935986649
N           0.74227006107215    2.31732346712939   -1.96343603137436
H           1.69186862007597    2.47564861383965   -2.27555663188188
H           0.13464353759437    2.93717145155765   -2.48381782346209
H           0.49696476184214    1.36063149577943   -2.20059362644826
