    26
        -50.44410010  Gyration_radius:  2.49532344685 Dipole_moment: 7.233
 S          -1.99655353347761    1.45174609150786   -0.02447617306172
O          -1.59052305905007    0.13939477673113   -0.46323940001202
O          -3.38032004020189    1.67725537218867    0.15678402633751
O          -1.19790782091419    1.77844407814081    1.27538238319809
O          -1.41947556546268    2.50367088260146   -1.00256753081883
H          -0.44939768743839    2.31061754327845   -1.05206881375746
H          -0.84785978684261    0.94168063784513    1.69572148026400
O           1.96894794077922    0.00801933637085    0.63972743693836
H           2.90028861706222   -0.05436003573534    0.85674526775482
O           0.14614348160123   -0.27407620701803   -2.51686070685295
H           0.60713920430668    0.56911722498983   -2.48725597131298
H          -0.58536794910403   -0.19506491702022   -1.87930132445513
O          -0.02344023295644   -0.22923025422181    2.40272079560228
H           0.73500927069522   -0.23097907575533    1.77330183700827
H           0.30463350849313    0.11162194185670    3.23755728069790
O           1.14549277814790    1.98079145734437   -0.96413785961311
H           1.41561590100599    1.25170075884136   -0.35353778453702
H           1.57912125786978    2.77748336782232   -0.65288683471835
O           1.45342634297948   -1.95078451820291   -0.86204786683741
H           1.06390459998528   -1.48954272827599   -1.63534063293884
H           1.77779403515887   -0.80706660170957    0.02412215305086
H           0.67163805720645   -2.34093454728906   -0.39328102401784
N          -0.81890988424036   -2.52725486890391    0.44272017997821
H          -1.25060704187933   -1.67108343469300    0.10087417830888
H          -0.76241667395775   -2.43850586121104    1.44999016914401
H          -1.44637570977420   -3.29266042945954    0.23135473463623
