    26
        -50.44409981  Gyration_radius:  2.49586766569 Dipole_moment: 7.240
 S          -0.49589125454353    1.98643025459736    1.38197335115629
O          -0.78388246951703    0.57373858693956    1.34868280579011
O          -0.61690901254376    2.64493626531815    2.62717554433284
O           0.92647095030371    2.18826404356688    0.77399822696541
O          -1.37684971257692    2.69837012160567    0.32672605559603
H          -1.21959803020053    2.20957536444261   -0.51994844834505
H           1.44401620373735    1.33313511236589    0.79142050639887
O           1.02822738298604   -0.53003941587298   -1.71825316473482
H           1.43384497158506   -0.85318240077668   -2.52411871787914
O          -2.41837208207336   -0.57505809299362   -0.49933715308269
H          -1.94849118947776   -0.20607729476485    0.26932508034668
H          -2.33169692909462    0.08291733845041   -1.19506065309478
O          -0.79855361987619    1.41316051389305   -1.88018305211204
H          -0.11227564372987    0.70768166804347   -1.78637322658290
H          -0.44585368262184    2.06371004679906   -2.49009595181824
O           2.35424601425247    0.04769904412654    0.52755059151773
H           1.89400146447849   -0.25395104369190   -0.29004529763934
H           3.22301701780793    0.35765857199098    0.26311364111509
O          -0.45731598596499   -2.38397355868792   -0.87372128152024
H           0.42383985136959   -1.30788959819614   -1.38680285466483
H          -0.14198089457512   -2.46067952814567    0.06333264601213
H          -1.31394983711029   -1.91140183910848   -0.80042102563811
N           0.37603315011058   -2.08798354441559    1.65895151627920
H          -0.08431619203847   -1.18221241700496    1.72141397939569
H           1.36854333794820   -1.91377960889852    1.75995987441395
H           0.07369620129250   -2.64104859961704    2.45073701780085
