    26
        -50.44455148  Gyration_radius:  2.44956566265 Dipole_moment: 4.216
 S           1.22938650417982   -1.09406986540939    1.53168635824870
O           1.83623593941686   -1.15759948696297    0.22265047658998
O           2.11892507928032   -0.87465659992377    2.61407182003980
O           0.13713889071894    0.03020440409647    1.50124558544233
O           0.35692324633804   -2.32725061683922    1.74745257588291
H          -0.21604219681572   -2.34899782403600    0.91047393853260
H           0.51198554143992    0.89271152920761    1.16254243700052
O          -1.00858722193480   -2.25203500600827   -0.39786418098192
H          -0.85020746321588   -3.03777357427458   -0.92450948727923
O           2.17689478448293    0.73946098517966   -1.50461431777015
H           2.12803244506057   -0.03319928795450   -0.89109814578992
H           2.99834296942872    0.65333122991651   -1.99062087785522
O          -2.64573218597693   -0.39080514462229    1.11831719660841
H          -1.80494943287953   -0.24881514947038    1.56773507517757
H          -2.50065308916730   -1.15939219172909    0.55612257837490
O           1.25540758400025    2.17146642697370    0.56296970020493
H           2.02654334527396    2.34959796652261    1.10603695053572
H           1.58195534074054    1.82835066717198   -0.29634258025420
O          -0.47439629050800   -0.26863834240892   -1.96013261507030
H          -0.76606507144888   -1.47025154575738   -0.99501373310271
H          -0.99951925909093    0.48529438204013   -1.57549932791494
H           0.44071121213479    0.03761797028722   -1.96632452782523
N          -1.75586357501475    1.71232000765283   -0.70641161410632
H          -2.28179495733924    1.15289483599366   -0.03519864088598
H          -2.40328744223369    2.33637373735887   -1.16953085599302
H          -1.09138468689495    2.27386049291214   -0.18814375771067
