    26
        -50.44455149  Gyration_radius:  2.44947489228 Dipole_moment: 4.214
 S          -1.12163096660364   -1.52718194303790   -1.20874412578165
O           0.11905356723516   -2.06273687575311   -0.69903185378047
O          -2.23978363478532   -2.39723313503029   -1.14882054920419
O          -1.43147526735876   -0.20408560834237   -0.42688383750359
O          -0.89790998171338   -0.97690261146725   -2.61431733311724
H          -0.08452252879109   -0.38176443916162   -2.49819107926100
H          -1.40489846385655   -0.35109065282640    0.56151417567055
O           1.14124032020675    0.47888289207888   -2.17216351514922
H           1.89163294089803    0.17048051194525   -2.68364476164182
O          -1.27819789849958   -0.74674213635261    2.10233774911263
H          -0.36295941857050   -1.09813114077990    2.14402786434413
H          -1.87023345179232   -1.48333411754466    2.27037803725626
O           1.11902084309109   -1.86429543123246    1.67982929731327
H           1.58198086593619   -2.65763540393695    1.95312886764699
H           0.79449798933437   -2.02763088533591    0.76123452115540
O          -0.85552213930493    2.42118218880825   -1.34526412761882
H          -0.07683990336864    2.13122285928059   -1.83253364904372
H          -1.34980775837379    1.61411216913034   -1.16251948739518
O           1.95262634469098    0.50110217144995    0.27761587061733
H           1.83355828463085   -0.31656242648899    0.77605030254012
H           1.44256368903023    0.45565320395523   -1.20510630841232
H           1.35669881385322    1.16560106404014    0.71964156234818
N           0.15449731790935    2.13890522581214    1.38340637305716
H          -0.28177740575874    2.48511756972817    0.52908144219076
H           0.40523655993520    2.93656818966033    1.95257303129642
H          -0.53704871805589    1.59649877144401    1.88640152341112
