    26
        -50.44307969  Gyration_radius:  2.50781855157 Dipole_moment: 2.708
 S          -2.08044116615953   -0.70257567979649   -0.62561170291467
O          -1.13085414165249   -1.68441201664141   -0.22262505591967
O          -3.11780351532478   -0.33858541039563    0.27757604539008
O          -1.37089007313257    0.56369689131635   -1.11883325701376
O          -2.77582997920663   -1.23722461575592   -1.94724158388799
H          -3.65521250568567   -0.86645543844453   -1.95317515108511
H          -0.41437078656124    0.35896219107223   -1.49349385241754
O           0.94588627904541    0.20829118201892   -1.98964595927977
H           1.05788277951586    0.75364817396073   -2.77089367197276
O           2.03223693268054   -0.78363393672905    1.52831955584243
H           1.86806015779646   -1.39878149625890    0.77072694597355
H           2.81755295600242   -1.10562496831647    1.97236154599828
O          -0.20305441945910    2.60323569196900    0.63736425652790
H          -0.81512854337866    2.44132476415365   -0.08487525352199
H          -0.41965879658559    1.90139072619533    1.30324172523573
O           1.48602139262019   -2.23554422168809   -0.63005298563541
H           0.53279851916430   -2.29413163721490   -0.45719340076494
H           1.56089379937093   -1.58319070802168   -1.33708366309094
O           2.05328310623058    1.40803738571421   -0.07436864283354
H           2.12332972100793    0.71409724169163    0.61227383677893
H           1.46345364131877    0.69549995939787   -1.22353551701422
H           1.31211363655712    1.99226233202740    0.22286359644265
N          -0.76579576206613    0.39826299308083    2.05765262450281
H           0.04046701153721   -0.20826396387745    1.94489143106319
H          -1.54529415208930   -0.01393442341847    1.55884460165580
H          -0.99964607155088    0.41364899395725    3.04251353195088
