    26
        -50.45230312  Gyration_radius:  2.44425059454 Dipole_moment: 3.500
 S          -1.41138526268079    0.66467856434877   -1.23380842035649
O          -0.21493928906304    1.41213739075368   -0.92818462192679
O          -1.78242281181749    0.64275174247225   -2.60550159012676
O          -1.23514070654615   -0.78974261986700   -0.71650632228788
O          -2.55838842400189    1.17602574686176   -0.34699878695873
H          -2.25192481456759    1.10523494281407    0.60956144933085
H          -0.73375904000076   -1.27388564434956   -1.49450231013170
O          -1.66344314732902    1.03055607918516    2.07590374788559
H          -2.08258066173502    1.70650032322392    2.61202258788078
O          -0.61313886633061   -1.58937972367036    1.85475428876110
H          -1.07360172684120   -0.83922525506673    2.25312551212313
H          -0.90888927645087   -1.59432594336981    0.93335729776232
O           0.05301472141720   -1.59091543463035   -2.68162013354648
H           0.92560666885403   -1.18534960456586   -2.36858237457906
H          -0.35062326931061   -0.96811600906773   -3.29645124107352
O           1.90791929221804   -0.79933753312228    1.47465298103826
H           1.01197408023686   -1.19130002573920    1.61449002604616
H           2.46660257600782   -1.15755693187197    2.16586037785650
O           0.76359358841240    1.68413601851581    1.53594453240480
H           0.54131675854903    1.77822474438476    0.59094084846610
H          -0.69950737452582    1.31925278042032    1.95309459787103
H           1.30935381005729    0.87445459831219    1.57948179625516
N           2.02555226706959   -0.28788299457274   -1.55972932332833
H           2.19623206427431   -0.65911913020135   -0.62965602544101
H           1.46184594558079    0.55024299408835   -1.43588248458101
H           2.91673291851655   -0.01805908528844   -1.95576640936504
