    26
        -50.45006254  Gyration_radius:  2.4512461614 Dipole_moment: 6.409
 S           1.53664478543344    0.06227519645007    1.53492851580383
O           0.85968711394970   -1.20049407282328    1.72093794406769
O           2.66484327978108    0.32435539153667    2.34472471496389
O           1.94745993150925    0.18312569576185    0.04883102117954
O           0.46768753332611    1.18929845031172    1.67986693917881
H          -0.42249681052954    0.72243844743084    1.83356426354414
H           1.12816597717450    0.36139806558929   -0.54148559357262
O          -1.97545368499438   -1.02315496872550   -0.57185303172167
H          -2.72617207600941   -1.39706467598582   -1.03424408047119
O          -1.61667922122556   -0.22681170651860    1.98360661591729
H          -1.04238310039284   -0.96278581985501    2.24072629973374
H          -1.92524817804966   -0.44694085105952    1.08043429982582
O           1.58344510417823   -1.59512099042892   -2.19416243438836
H           2.30861798603996   -1.26528233280944   -1.65511701986996
H           1.05010710388104   -0.82225893619046   -2.41481961677311
O          -0.04858453817015    0.65767326425283   -1.44674766368826
H          -0.81754673468202    0.11198546915591   -1.18455525001763
H          -0.27222510249187    1.58942961312577   -1.18289568667152
O          -0.05421387954441   -2.71279306990294   -0.31677704636438
H           0.55677555848768   -2.51456218015535   -1.05438303232179
H           0.36575067513593   -2.34454876398901    0.48203238442713
H          -1.29190359832733   -1.76344503469073   -0.48925802831711
N          -0.55727151103434    3.06024908037515   -0.38958883011298
H          -1.51533913882686    3.34908653434169   -0.23712031098896
H          -0.04377261388866    3.85545067231953   -0.74748033931498
H          -0.15989487074450    2.80849752248028    0.51083495593263
