    26
        -50.44410012  Gyration_radius:  2.49505463633 Dipole_moment: 7.228
 S          -2.42230589120026    0.04462743635526    0.47128573967687
O          -1.44371411920015   -0.81409968569015   -0.14872224115022
O          -3.61856676755256   -0.55622183528134    0.92592823819575
O          -1.70590402738325    0.81523513083431    1.62328741207415
O          -2.75530863787602    1.20224466576858   -0.50081513686494
H          -1.88109337529102    1.59854336177449   -0.74463996722704
H          -0.86837351811287    0.34352942791055    1.89772882937795
O           1.69629367892471    1.15724622743467    0.26456749624204
H           2.51875155126110    1.64798002975492    0.29838718764416
O           0.59575424528388   -0.12046302780088    2.33633109087932
H           1.07592327532332    0.29174987733910    1.58083798927089
H           0.83237402518003    0.37457499266691    3.12356922892184
O          -0.40272465404606    2.24582211933579   -0.98047295079315
H           0.34936460284235    1.82448642056904   -0.49639144407694
H          -0.44695643869133    3.15682592810166   -0.68415060049024
O          -0.23400354675321   -0.22591464331156   -2.51437774291700
H          -0.73511851361804   -0.55887878477930   -1.74901169452681
H          -0.33791678508600    0.72972442086852   -2.49578366872396
O           2.09340184362186   -0.79418079647289   -1.28191887890099
H           1.88208519320478    0.35875552960041   -0.37419167817934
H           1.78402298638514   -1.54558423257701   -0.71356182695461
H           1.36552637180151   -0.66577269621966   -1.92701885544042
N           0.86738470277363   -2.52433954558697    0.36126422467497
H          -0.03202551441251   -2.08292961064100    0.18108089507961
H           1.06413315371323   -2.38511452235743    1.34488716023997
H           0.75899612888363   -3.51784618754983    0.20190119397185
