    26
        -50.45098314  Gyration_radius:  2.42996421182 Dipole_moment: 1.547
 S           1.05119190761211   -0.88235226744606   -1.06586493860397
O           0.14600995617307   -1.36714326880891   -2.06812177809444
O           2.44375103663738   -1.08293412773560   -1.24779950907229
O           0.80850000545750    0.63698705603296   -0.87563427863156
O           0.65705736586136   -1.50552641251678    0.30185811317486
H          -0.34300781828300   -1.52863455135797    0.40342467943395
H          -0.13759302560931    0.92049194089273   -1.06102882630294
O          -1.87842927440638   -1.41511490005819    0.73456830006968
H          -2.10819653255534   -1.94724042176625    1.49845974743288
O          -1.59571966245647    1.42784138163155   -1.33498865028880
H          -1.62775208447131    1.99292287968241   -2.10880737412405
H          -2.06222292905953    0.57223621391810   -1.58768632954948
O          -2.48274487635405   -0.92438855824702   -1.93038751195350
H          -2.62290698519969   -1.30766050966852   -1.05364983801194
H          -1.59492498172205   -1.23191680499871   -2.19736170108961
O           0.92924607728788    0.55846771548161    2.28422639016920
H           0.95340091889876   -0.39960186302857    2.21760829656030
H           1.71419696831741    0.85154105497892    1.75987555313150
O          -1.57147452474162    1.01520544044459    1.47977468344381
H          -0.64447949706822    0.98924282827365    1.81994850906231
H          -1.56012698404324    1.52378007832941    0.66097815916501
H          -1.86414711575729   -0.45159324283988    1.05509255397492
N           3.14786634586616    0.89121664608419    0.77216851727235
H           3.17941907083950    1.76163288236300    0.25607816034670
H           3.00579229939269    0.14916219627830    0.09055029401651
H           4.05729432942675    0.75337860406509    1.19671877838908
