    26
        -50.45006240  Gyration_radius:  2.45117130323 Dipole_moment: 6.415
 S           1.40126834022043    0.94697513192834   -1.36519147931698
O           0.38692837112573    0.35581143616522   -2.20732146394732
O           2.39881571474012    1.72695007155995   -1.99274654623380
O           0.70159038040324    1.80366999860395   -0.28420473543973
O           2.03526874102568   -0.20309715462596   -0.52309830109075
H           1.53364550135230   -1.05163547858002   -0.77293827826113
H           0.25213511301990    1.20741529639888    0.41884512311113
O          -1.65623036838849   -1.58709375247326    0.11412506160542
H          -2.42277725150557   -2.11338865784876    0.34342749146676
O          -2.08278694625417    2.33990460595258    0.23916081511608
H          -1.30841548723583    2.81844010621664   -0.07177359218488
H          -1.78943770232940    1.84351631145289    1.01242581554707
O           0.58714337395383   -2.14487715123282   -1.28099167980593
H          -0.21043775115854   -2.12339972976794   -0.71273715040244
H           0.35335159048529   -1.62583468482565   -2.06425495990874
O          -0.39923931004216    0.36643923444082    1.49544476417919
H           0.39393073026538   -0.01079475955385    1.96069112915065
H          -0.86078910929450   -0.39549968055095    1.09027599320505
O          -2.22863960069112    0.28480658562607   -1.55275183961669
H          -1.35354890261173    0.39008452518269   -1.96901026052222
H          -1.96853756366562   -0.90631813595595   -0.56499519720602
H          -2.35939620016925    1.08250574814139   -1.00206358213186
N           1.89188452359218   -0.66537815968629    2.40904820606053
H           2.36076136932620   -0.55845043128737    1.51417755468240
H           1.93308896163134   -1.64331145633856    2.66704207060182
H           2.41042349217968   -0.13743983898148    3.09941505132381
