    26
        -50.44593654  Gyration_radius:  2.5057627775 Dipole_moment: 4.478
 S           1.64176538742702    0.67320119035738   -1.39595396870230
O           0.34688929744500    1.28078273048318   -1.57176186745580
O           2.74032338750378    1.55389588874080   -1.21277460055920
O           1.53110845320750   -0.26610352250165   -0.12728817429480
O           1.87703521467943   -0.35151897958191   -2.49420674006904
H           0.92910336655987   -0.82289645083758   -2.63007432623157
H           1.43187944826270    0.36691382086239    0.65215820235039
O           1.15234477970899    1.44054462743108    1.73229998135678
H           1.60196379836469    2.21948402357997    1.39788456514453
O          -1.96127553891479    0.53790760477508   -0.44496992011723
H          -1.67947992337054   -0.36324639446154   -0.19804508887579
H          -1.20268292555348    0.92633271870173   -0.91915482133982
O          -0.69705862400656   -1.78827895768453    0.30103052764540
H          -0.78214834823228   -1.69999564832358    1.26253869588285
H           0.18425704832887   -1.42749810715419    0.10867300545332
O          -0.21847202973581   -0.87109974743481    2.91090769046467
H           0.41332765807254   -0.17254650625178    2.69807850426809
H           0.17531295718337   -1.39924623905483    3.60676916105003
O          -1.41928318104254    1.71079606942253    1.85737071038530
H          -1.74486836579461    1.38472196886059    0.97882409587842
H          -1.67265657975989    1.03512244589453    2.49245311536097
H           0.16687272176081    1.65868945424862    1.75183264051834
N          -0.45229299185212   -1.34126076976968   -2.68889138620172
H          -1.03038495595119   -0.50878058402843   -2.71446246028924
H          -0.68439404771707   -1.86539592202226   -1.85127912503526
H          -0.64718600656847   -1.91052471429744   -3.50195841657876
