    26
        -50.45098317  Gyration_radius:  2.42995234365 Dipole_moment: 1.550
 S           1.15453937796016   -0.80936925257177   -1.01626778027477
O           0.36149375126162   -1.82736740584365   -1.64365042966836
O           2.49531766574963   -0.62753863200846   -1.44278782311399
O           0.41927304718939    0.54786519309146   -1.16106314048311
O           1.17552578450862   -1.06993946534585    0.51527531212839
H           0.26746421692404   -1.35867318187674    0.83636239704713
H          -0.58119951884560    0.46264070323537   -1.19950879533047
O          -1.15687405070142   -1.61491608477209    1.45687705690520
H          -1.08996641612224   -1.92901313302719    2.36036469878665
O          -2.14664309377581    0.39874511414153   -1.26555186737130
H          -2.46933903192253    0.66100304368091   -2.12937185140642
H          -2.31055553375063   -0.59149390896306   -1.18879706001458
O          -2.21718219813228   -2.17463899238814   -1.04726718642588
H          -1.31799175917165   -2.26765105326669   -1.41723752703544
H          -2.10479847865684   -2.29271863179162   -0.09405225478099
O           0.94761140052313    1.48575196624890    1.81268729222191
H           1.29765601985360    0.60745878427388    1.98270297596018
H           1.50896027800458    1.82482840027360    1.07309655273790
O          -1.63341956495497    0.90064942761849    1.48734159942208
H          -1.90183199213056    1.11110290578629    0.58575032438758
H          -1.44245034617271   -0.64221864627453    1.51609686139342
H          -0.72185007579226    1.26011629431042    1.61182082729713
N           2.70414463989230    1.98797938284191   -0.18261913341692
H           3.64894591442155    2.26764450179927    0.05270214626913
H           2.36421881798472    2.62418152605968   -0.89299503974031
H           2.74895114578628    1.06557114478212   -0.60990814548925
