    26
        -50.45912154  Gyration_radius:  2.68321412721 Dipole_moment: 5.095
 S           1.83366418988405   -2.16566585088990    0.32422591238868
O           2.50088036900274   -0.91469248919584    0.66418552201352
O           2.69684661314108   -3.22773549143817   -0.07853278214775
O           1.14154487887563   -2.66859209685798    1.69959433315694
O           0.69574492291928   -1.90210158379775   -0.56021721284564
H          -0.16155674429611   -1.15762546474881    0.53771882231894
H           1.77601012991233   -3.32424234888421    1.96790484298956
O          -0.76736708996214   -0.70878901957666    1.18480987814500
H          -0.69626635935495   -1.24293340507345    1.97869891327714
O          -2.37899465660181   -0.10514967351039   -0.91405681210003
H          -1.90341418232712   -0.35480375414734   -0.09650418212560
H          -2.72940869139031   -0.91811042952726   -1.28164019217178
O           0.11352255447397    0.11455295058748   -2.20697500304294
H          -0.81635495470809    0.22273798284067   -1.95036871978346
H           0.37592771147210   -0.74397973804121   -1.81945851603392
O          -2.28830516126832    2.61221022833025   -0.39711813508298
H          -2.42857544096860    1.70841418404259   -0.71939785506365
H          -3.14887634379367    2.95984510405984   -0.15992561513733
O          -0.27953108244944    1.99635639742377    1.34251369530290
H          -0.99143620917665    2.36523612871230    0.78584732979659
H          -0.50989945052493    1.05923281158876    1.47691815696380
H           0.93905099337422    1.72258861940768    0.34631814787205
N           1.60821494247964    1.30488618978219   -0.36472605701491
H           2.03010973540715    0.42642851774063    0.06903007783475
H           2.33814303280072    1.95753650519877   -0.62523366708253
H           1.05032628307843    0.98439570597214   -1.20361089242421
