    26
        -50.45935819  Gyration_radius:  2.71764341942 Dipole_moment: 6.174
 S           0.35519585771827   -0.56240700866455    0.42193828129743
O           1.23672116823767   -1.68375583822078    0.19026466774972
O          -0.04544887281554   -0.40631657919242    1.82441985043572
O           0.90620341085176    0.70658526774486   -0.07617327058717
O          -0.97085675549413   -0.80647722897565   -0.36540612367966
O           2.68657285302799   -0.52309220167215   -1.72192038080790
H           2.40305308910852   -1.13014324850060   -1.01403284729161
H           2.25754590089539    0.30313204651325   -1.46406958354396
O           1.23710870365229   -1.60126552341159   -3.68538934438303
H           1.81312089137169   -2.13774270549425   -4.23207451626542
H           1.82364896288303   -1.13154209345743   -3.04543386619345
O          -2.61755071660775    0.28382796077474    1.59482250339437
H          -1.72704955334561   -0.07588886988477    1.78782654236541
H          -2.80568786929816   -0.03159537414148    0.70622127092318
O          -2.25700536229649    2.88117582794169    1.82780407840515
H          -2.51342921523520    1.93269973118953    1.68160957510247
H          -2.77877789895078    3.18410511520339    2.57254085461497
O          -0.23376735282658   -2.78365032125333   -1.78354482346045
H          -0.80843066903025   -1.58087514167124   -0.99610102426783
H           0.18967854277835   -2.39772157527944   -2.58522351102230
H           0.47410689246663   -2.86531417322489   -1.12666737279259
N           0.28596546202159    2.13608964071013    1.92517747710846
H           0.98617437386941    2.68212450249373    2.41434437380558
H          -0.65737593283360    2.60651513891249    1.89278107479462
H           0.59787625791650    1.83619862743800    0.94577299535010
H           0.16240782194034    1.16533403412874    2.31051314894505
