    26
        -50.45098321  Gyration_radius:  2.42989947296 Dipole_moment: 1.550
 S           0.99110648317746   -1.07126706751407   -0.94321667066203
O           0.02672721432366   -1.76017055369637   -1.75208219319173
O           2.37101255767446   -1.29024919343988   -1.18919905591475
O           0.72349278770021    0.45221250697277   -1.04684814324034
O           0.71666033859241   -1.40585640236878    0.54904704978516
H          -0.27198279383057   -1.41749671784497    0.73190102235761
H          -0.24092311164142    0.68203636900430   -1.21108371836962
O          -1.78057863935021   -1.25407354018420    1.15311461428494
H          -1.93867556503050   -1.62051917448934    2.02499530967125
O           1.08292048557221    1.02325151142580    2.04200369042090
H           1.12671353064043    0.07197333720591    2.16860701071874
H           1.81856277263353    1.21147959808298    1.40925385309898
O          -2.59480209252554   -1.32573486259353   -1.50013361816983
H          -2.65862453175303   -1.52292201334838   -0.55554185801442
H          -1.72166905458791   -1.67213299642746   -1.76805593764005
O          -1.72786208120014    1.10764135749710   -1.46758386797167
H          -2.18952407913113    0.21370783128042   -1.50337942354916
H          -1.83208794045693    1.50156040522118   -2.33537423061743
O          -1.48252877345105    1.28058072113137    1.36156042113211
H          -1.76763148508391   -0.24529493386195    1.26867413240430
H          -0.53225871594589    1.33433483948690    1.62567388723248
H          -1.54585670931840    1.61086627319858    0.45816538063750
N           3.17257259055154    1.06371907325972    0.32400034465496
H           2.99954399032266    0.19606353133793   -0.17860190406694
H           4.11507846416491    1.02627445918466    0.69340578936095
H           3.14061434799724    1.81001564146800   -0.35930188426680
