    26
        -50.46662455  Gyration_radius:  2.47237245842 Dipole_moment: 5.604
 S          -2.00174012400583    0.80853366171089   -0.37410390516170
O          -2.20044251957947    1.92411719780552    0.51170085879840
O          -1.11542699488968    1.04049362667564   -1.49152108398600
O          -1.63783378806242   -0.43256296166218    0.32781795723108
O          -3.44150216991417    0.50499026239897   -0.99204947381679
H          -3.94739156084944    1.22876293778198   -0.63769372148457
H          -0.81129326874081   -0.35876697865859    1.77634251760044
O          -0.21896745141938   -0.30701794992040    2.55973065435996
H          -0.78623625643929   -0.30962794872562    3.33139039357319
O           1.00072645225247   -0.05150598407644   -2.49690913857646
H           1.08046185296614    0.21712161374817   -3.41285106501329
H           0.21693415377504    0.43705243569481   -2.13521629218287
O           0.44281221949618    1.94278102481476    1.02204147523346
H          -0.47329572324904    2.11778078004322    0.75760229411630
H           0.38165366048796    1.35415586433949    1.78734606802526
O           2.49904370950349    0.69281279878166   -0.21585672278703
H           2.16069143543862    0.50422438013550   -1.10200206339890
H           1.84824504790569    1.30348745362521    0.18236251825175
O           1.94407264887092   -1.43393022333461    1.22335191485196
H           2.33466270990716   -0.63805831974007    0.77160484433773
H           1.34595512640402   -1.07702163833019    1.89921998719343
H           1.01224001702702   -1.84391540429876    0.12235955231034
N           0.27104999713314   -1.92451660504653   -0.67824859546293
H          -0.57184731340239   -1.38078471745003   -0.33934795074092
H           0.02958765975582   -2.88640630936141   -0.88585533919169
H           0.63784047964952   -1.43219901693763   -1.51121569407358
