    26
        -50.45110058  Gyration_radius:  2.45084296184 Dipole_moment: 4.599
 S          -0.64637437499125    1.64092397909703   -0.53113092734230
O           0.73765626845622    1.25528077809810   -0.37349908718507
O          -1.14812902715592    1.59053965182994   -1.85932570853627
O          -1.50488934060709    0.77513173091806    0.42583912362579
O          -0.85472327958086    3.03227224428016    0.07850600034496
H          -0.66152562596564    2.91315150331443    1.05612779857556
H          -1.57983033852427   -0.20463273506545    0.13274317819022
O          -1.62483098007624   -1.67370197060671   -0.16937060562449
H          -2.28332674679374   -2.13291229620077    0.35566041188059
O           1.23694244465474    0.31396367177616    1.98363049008144
H           1.11348337316738    0.63023165782146    1.05357547639774
H           2.16393771941715    0.44654655560330    2.19278874665817
O          -0.45111860596660    2.35941533810798    2.53626642011879
H           0.18038774021033    1.60918178937389    2.48801590324513
H          -1.30392860919630    1.97253293998298    2.74982691075362
O          -0.72633189763247   -0.99716692428278   -2.81132640949534
H          -0.87928380776855   -0.04727205301130   -2.70821132637023
H          -1.23588715025747   -1.42007763133596   -2.11139347739632
O           0.69135047617877   -2.18986851348859    0.75915973930448
H           0.86382764498395   -1.45712889682211    1.36867846970099
H          -0.71146136357761   -1.96505100697483    0.19003161939162
H           1.21686006723930   -1.97479165273810   -0.06650836478970
N           1.81923851602758   -1.27830672895991   -1.45400530470923
H           1.05888739752437   -1.38692744041359   -2.12705644460338
H           2.68263722643288   -1.52497020232395   -1.92083701331679
H           1.84643226378798   -0.28636379798128   -1.23818562887303
