    26
        -50.46662478  Gyration_radius:  2.47235711523 Dipole_moment: 5.603
 S           0.95680618282123    1.44960638500834   -1.33530225994147
O           2.09828190745287    1.99602688347452   -0.65197609205559
O           1.10218128536861    0.09722074664328   -1.82322434052237
O          -0.29781275316500    1.59741462943469   -0.58069757310903
O           0.75582942809822    2.37593728974708   -2.61944758465172
H           1.52784926019366    2.92955451732256   -2.56718923067663
H          -0.26783977259518    1.64055017328079    1.08793604363001
O          -0.25122431259464    1.53883234178416    2.06598614799168
H          -0.20134919118257    2.42266899165120    2.43152688373506
O           0.49206006384552   -2.29075423636270    1.13224002598498
H           1.15743292007939   -1.57528510180411    1.15141541876582
H           0.31747865908062   -2.44945622723362    0.19436186146075
O           1.91675350782338    0.01012280101989    1.15668135728566
H           2.15906638823682    0.63965545417684    0.46044626814664
H           1.34653660255428    0.50362897917231    1.76268070446179
O          -0.16663312027902   -2.14515382427683   -1.61531297783822
H           0.08004423628061   -2.70798902756901   -2.35010277520613
H           0.38720936696024   -1.32661100605813   -1.69902066114783
O          -1.56330515797180   -0.91225697543625    2.01433701415224
H          -1.15057999538279   -0.07861135643273    2.29131179261900
H          -1.91506193438251   -0.66037207902215    0.57867750032014
H          -0.80727860985647   -1.53879432435096    1.85347542366221
N          -1.94903703734074   -0.43921550763578   -0.49223627959790
H          -1.49923398750525   -1.22071958163209   -0.99988888814364
H          -1.33614475374870    0.41388140155876   -0.62468227992040
H          -2.89202919279429   -0.26988134645849   -0.82199548940504
