    26
        -50.45110060  Gyration_radius:  2.45083569719 Dipole_moment: 4.600
 S          -1.55595822374701   -0.55296684491068    0.81604981799933
O          -1.42881576109610    0.14306156868254   -0.44434867077608
O          -1.71243367392100   -1.96200441640452    0.72381947122654
O          -0.34021168538357   -0.18053372410968    1.70242152006307
O          -2.69992088138207    0.07136668143470    1.62377657601507
H          -2.40063833371997    1.01246067288320    1.80298668759857
H           0.54088024076145   -0.59531534767257    1.38143174965494
O           1.88011897959131   -1.06544004304852    0.89460174134883
H           2.56952383974172   -0.94088157140527    1.54984845704475
O          -0.09144690393006    2.34632962502361   -0.22384971067676
H          -0.58118500172086    1.50217641236727   -0.39069010773649
H          -0.35504932492510    2.95297430733962   -0.91891426948775
O           0.45013902122515   -2.94590040306080   -0.73763107144517
H          -0.40058272522322   -2.80352350795449   -0.29908691371737
H           1.11531234271305   -2.59600038803306   -0.13470588787118
O          -1.57569878454962    2.35538940285650    2.04240032624225
H          -0.98785988694298    2.12639659723068    2.76668768326146
H          -0.99828552750302    2.49515028687100    1.26073692147388
O           2.12211255419400    0.70824461741173   -0.91888461395505
H           1.52936941419544    1.41713727488471   -0.62856751037179
H           2.05763140466378   -0.38289100024897    0.15234848913300
H           1.62303287176784    0.22766132580785   -1.64281675892380
N           0.52110217312341   -0.66106759547230   -2.51985962911543
H          -0.37977531204403   -0.33457007475554   -2.18359461225318
H           0.62208298149702   -1.60589849877465   -2.14569043197303
H           0.47655620258242   -0.73135536679940   -3.52846925270532
