    26
        -50.45006244  Gyration_radius:  2.45119227348 Dipole_moment: 6.409
 S          -1.26563056278333    0.16605597754056   -1.75896890574059
O          -0.21032419244248   -0.74721906124607   -2.13265437756896
O          -2.18997427849845    0.54130127646717   -2.75987387687277
O          -1.99465922721487   -0.44614810803020   -0.52290750227983
O          -0.62210701210771    1.44181975994886   -1.16714737452259
H          -0.24487605031491    1.25870434944962   -0.23139784870532
H          -1.50305757964090   -1.30732036699048   -0.29731785423007
O           1.59141317746532   -1.32623311042511    0.99126489505031
H           2.32153347980307   -1.67357483373224    1.50449491647441
O           2.13182804603368    2.18576174605332   -0.74036468298272
H           1.39956015044407    2.45255806157847   -1.30416669992559
H           1.76441387391621    2.11680902296695    0.14886513815274
O          -0.55644642843843   -2.50292432384953   -0.14511913554527
H           0.19659230121511   -2.20543646382885    0.40627049077944
H          -0.24882538297855   -2.41946359440561   -1.05939935043896
O           0.29852288892235    1.04136977315965    1.16485162346020
H           0.76407860181559    0.18195429989155    1.21189510626967
H          -0.53853259536231    0.92759305023732    1.68852427575976
O           2.34509847564249   -0.47504275177813   -1.31456898042070
H           2.45973544415925    0.48991588157031   -1.20319348059931
H           1.97480651165661   -1.05043139191051    0.09727666166115
H           1.50725792990676   -0.58880381863075   -1.79959800435782
N          -2.08533007634853    0.55591017947804    2.27359447845108
H          -2.17494113085313   -0.17788092108528    2.96506600034513
H          -2.48217823380949    0.21500930321906    1.40279237684989
H          -2.63795811018907    1.34571604442088    2.58178215099620
