    26
        -50.45006251  Gyration_radius:  2.45117956701 Dipole_moment: 6.409
 S           0.23643224228126    2.15071516867597   -0.20220841065234
O          -0.06318335439248    1.92874855440855    1.19360487059255
O           0.34104266772408    3.48917505560966   -0.64330941431081
O           1.53243972688675    1.34777499763904   -0.53329077713046
O          -0.83104738363968    1.42414446865834   -1.05345921808582
H          -0.68662804095347    0.40920117205975   -1.02893800708490
H           1.79345051850342    0.85967206820056    0.31975075075063
O           0.01234600898327   -1.70578651111387    1.53735819195525
H          -0.12749571426066   -2.52182561278402    2.01871681084923
O          -3.12144056284690   -0.16698102334749   -0.31696175782387
H          -2.53292967677320   -0.78967481277162   -0.76013854331114
H          -2.94649481945720    0.68840078856202   -0.72070479179720
O          -0.49207136461044   -1.09187275381346   -1.04606777798804
H          -0.27106215069065   -1.41018760495202   -0.14745033948457
H           0.34221631160456   -1.17830645307571   -1.57935327852675
O           1.91583345013207    0.20271887099323    1.69915217647874
H           1.36980760376792   -0.61027083878723    1.68014133162735
H           1.35232855033169    0.87609016557734    2.10726400938329
O          -1.79300356915541    0.04889654519009    2.05865742723226
H          -0.71850415694487   -1.07138110143824    1.83010971046061
H          -1.27987701373221    0.85536703081215    1.86782461012608
H          -2.44235590942249   -0.03215559458181    1.33165975952424
N           1.86265471738915   -1.01151618118212   -2.30975456928884
H           1.86085268741329   -0.97270054109683   -3.32096545508787
H           2.60605407077264   -1.63518804057848   -2.02181691685557
H           2.08063517105743   -0.08305781652070   -1.95982038155847
