    26
        -50.45006250  Gyration_radius:  2.45116080714 Dipole_moment: 6.408
 S          -0.87425513583091   -1.98517113314571    0.12463829371811
O          -0.84220388190588   -1.49582623258959    1.48363413796910
O          -1.30821545704516   -3.31414587855863   -0.08152667583805
O          -1.72628512456603   -0.98066096610911   -0.71163438336213
O           0.53524170087532   -1.81696448425247   -0.48938477238563
H           0.72898887291278   -0.83006760618668   -0.69019125751801
H          -1.99943968981560   -0.23664004628685   -0.07479585867638
O           0.19808799860548    1.98678852993521    1.13441381899781
H           0.48484591257876    2.83225608022553    1.48101519639439
O          -2.20910787045908    0.76477056779863    1.06699651822308
H          -2.00396338036789    0.09600210289900    1.73647877472086
H          -1.43816305292338    1.36897320955203    1.06471421862651
O           2.99022086618427   -0.75868951994483    0.59404256724440
H           2.75435803766972   -0.13931575257710   -0.10687775833806
H           2.64120002020136   -1.61089588906099    0.31617155846566
O           1.04494686893913    0.61009619358231   -1.03167311376855
H           0.42836746478142    0.77343894454610   -1.79406172710458
H           0.74231385606774    1.19817356411090   -0.31032585289435
O           1.16335661074746    0.01366211398317    2.47036013993410
H           0.59511814409996    1.27976933322151    1.73842410054488
H           0.47217930730678   -0.64790882643803    2.28401222458548
H           1.95009794780113   -0.27341532827132    1.96503346868275
N          -0.85503936469488    0.83186030019712   -2.89921970550104
H          -1.43820922396131    0.12053362814496   -2.46802707129229
H          -0.63622205115390    0.52966826397330   -3.83997160181821
H          -1.39821935601263    1.68370882118899   -2.96224521924086
