    26
        -50.45110059  Gyration_radius:  2.45080636501 Dipole_moment: 4.599
 S          -0.71413971461126    0.22712554696684   -1.68264490421315
O          -0.41764799373619   -1.02254725592523   -1.01963916775827
O          -2.06873517878313    0.64984209085411   -1.61378979058669
O           0.24117530460881    1.31268805716355   -1.12466806153191
O          -0.23963250448054    0.15056689595105   -3.13862461877066
H           0.75668309028060    0.04661762812753   -3.07640728247506
H           0.02529334000330    1.58998768709030   -0.16140048811381
O          -0.15667183919296    1.94831696207165    1.28433886476444
H           0.35146283775677    2.72268446577170    1.53395050814179
O           2.04123663913764   -1.15941989999318   -0.22808227998323
H           1.08133734567544   -1.16432949805501   -0.47072142633260
H           2.31041709817043   -2.07876217468849   -0.17367268619988
O          -2.76708249083255    0.76923996808051    1.08419437621314
H          -2.07651563393941    1.40064748017975    1.31405185655527
H          -2.75533852714304    0.70941130879254    0.11848477921865
O           2.28930129056297    0.05300623861934   -2.63786163299506
H           2.35290691079440   -0.39483711710233   -1.76644411607398
H           2.46616079324013    0.98207177804225   -2.47012818979873
O           0.98967614880395   -0.13394843648277    2.20267401212434
H           0.29594015604414    1.14664619677113    1.73241039107921
H           0.19268447001353   -0.74117863513173    2.19059870956976
H           1.54788162283737   -0.43202555714010    1.46938555735237
N          -1.19644964360769   -1.56452551663129    1.78317498395733
H          -1.91557226400871   -0.83943958704854    1.78776986185194
H          -1.57233007897900   -2.37542040517425    2.25793850277190
H          -1.06204116857542   -1.80241824105638    0.80511226116643
