    26
        -50.47220382  Gyration_radius:  2.41991083196 Dipole_moment: 2.792
 S           1.48175524143872    0.84605596587653    0.23264127317702
O           2.55352028104464   -0.11563582793483    0.30505701375178
O           0.88952707410465    0.91146785246628   -1.10013968600035
O           0.47709696407360    0.67828313738390    1.26591057807150
O           2.12856180872613    2.27107522812421    0.49987529566743
H           3.00165073491680    2.15014481265220    0.14351661906841
H          -0.35522376509783   -0.69142920416901    1.56034970412670
O          -0.81559629803037   -1.55621199680137    1.66428027545328
H          -1.12096488574905   -1.58908734977699    2.57213973332884
O          -1.76824648070009    1.45825330272948   -0.89350653637070
H          -1.79900814800149    2.08851079995951   -0.15667114841190
H          -0.81939141683829    1.35522112882851   -1.07935801737755
O           1.36200554189652   -2.51053117534239    0.20432682449999
H           1.94234367574600   -1.72971906123503    0.31595877593676
H           0.66910439553215   -2.42837946144592    0.87892508233911
O          -0.81002789846831    3.02380581196908    1.18018335630392
H          -0.12617822201350    3.66445375900421    0.97816780775204
H          -0.34329405147001    2.18724205278072    1.35424855908428
O          -2.29000756905336   -1.13904871438976   -0.64223768540104
H          -1.01083415094337   -1.43903759038041   -1.44038481108979
H          -1.98767219168476   -1.34411741569392    0.25902416442205
H          -2.29401985286090   -0.15421618168099   -0.71055959248932
N           0.00760436353655   -1.49181786519043   -1.80218090103590
H           0.56644212311437   -2.08571501798490   -1.12104879765043
H           0.39870697273679   -0.52515087354848   -1.71423331028700
H           0.06214575405801   -1.83441613619979   -2.75428458688501
