    26
        -50.44593653  Gyration_radius:  2.5057557286 Dipole_moment: 4.478
 S           0.29550486482327   -1.89512313670040   -1.19063244854399
O           0.72383590958123   -0.66490248155390   -1.80694311990234
O           1.26100443906862   -2.93199003952573   -1.09718878838664
O          -0.18890301691652   -1.52376881330046    0.26935936566896
O          -1.01042500266682   -2.35272030985978   -1.82057384347637
H          -1.56384409692990   -1.45325811029803   -1.97564848019560
H           0.65391109859694   -1.26617130459699    0.76077313119212
O           1.99752560658659   -0.77051221679093    1.34904269953427
H           2.65489473157509   -1.27998847671271    0.87044213706114
O           0.10391859571056    0.81675409765635    2.93305017051639
H          -0.14141226884171    0.57747665579562    3.82792563660896
H           0.73654735291029    0.15342194415383    2.62939872304734
O           0.23134093482910    1.82696976802499   -0.97168770794646
H           0.49590122812384    0.98651097384093   -1.38978927611729
H          -0.52058089918800    1.60294482987031   -0.39128689612919
O          -1.63806978869923    0.74575435620568    0.73201298820771
H          -1.25023904184457    1.02791355406947    1.57429610021496
H          -1.29976665684550   -0.15644396316408    0.60758861132496
O           2.11864825525272    1.77139924758381    0.87363917581559
H           2.14304463934128    0.19764362355089    1.10281362898929
H           1.50518920865977    1.90871544945852    0.10618907870144
H           1.66842550828386    2.15038864623592    1.63373554798947
N          -2.16558190248650   -0.11360079820648   -2.12879380548923
H          -1.42679778088757    0.44579784040326   -2.54006176329932
H          -2.40539027774878    0.28719665131899   -1.22766289377512
H          -2.97868164030355   -0.09040799741328   -2.72999796157499
