    26
        -50.45935811  Gyration_radius:  2.71755676341 Dipole_moment: 6.176
 S          -0.70957415726467   -0.33647991611484   -0.06829848586476
O          -0.02255605537723    0.56526823405774   -1.00469508670701
O          -2.09322104219746    0.02402846160688    0.14123256493815
O          -0.52001310289108   -1.72641526643171   -0.49731525676521
O           0.04365502881104   -0.21470737797864    1.29396136207423
O          -1.87158377618954    2.53739878662272   -0.71890777407667
H          -1.00278788484911    2.28323143505358   -1.05625098907622
H          -2.24870205155430    1.67732796094149   -0.45809125014653
O           1.65896463376090   -2.44161665887560    0.87588809530531
H           0.79735861129692   -2.31767611751826    0.42653264164791
H           1.65179258281322   -1.78059948986385    1.57413025723093
O          -1.52543188590385    3.51033190654781    1.74113256964916
H          -1.61986896158622    3.26131655815634    0.79071914474986
H          -2.22839679677014    4.13526140983488    1.92493508164247
O           3.38973442669571   -2.02486290690846   -1.06358644599507
H           2.84400565794408   -2.17320642633282   -0.24691885520942
H           3.85672062005087   -2.84663795280507   -1.22244672588033
O          -1.74803591829861    0.99383514928228    2.63296530887383
H          -2.34305495154091    0.67824587106400    1.93608843368742
H          -0.56851912447789    0.27497991988135    1.93377368701104
H          -1.61607265452486    1.95421805595385    2.45615826043660
N           1.20354446216262   -1.21752212366365   -2.32852234451083
H           0.48861428062234   -1.78976213312910   -1.81109863020524
H           1.11657312869219   -1.27254328277753   -3.33705832978727
H           0.90429512601648   -0.26848745263721   -1.93355131018151
H           2.16255981453899   -1.48492661399091   -1.98077591285572
