    26
        -50.45564905  Gyration_radius:  2.41792427099 Dipole_moment: 3.085
 S           0.52933473795502    1.59000663934548   -0.64221233800021
O           0.71474130990069    1.02316330679312    0.67203192158786
O           1.64720752761190    2.29436824027637   -1.17080404308611
O           0.06789435489738    0.47276453258288   -1.59529075089872
O          -0.70695567899299    2.51859164844749   -0.61460245507272
H          -1.45375693053384    2.02295301416777   -0.17389302689088
H           0.66600792085226   -0.41417854426543   -1.40327715361936
O          -2.59227370773993    1.17911534217100    0.60128058041423
H          -3.17038100041318    1.77910036259289    1.07590320819645
O          -2.23502162293234   -0.99213053722125   -1.10398631646944
H          -1.54365201506736   -0.53056613283342   -1.60058934888256
H          -2.67037644848232   -0.30288400108052   -0.58286020509290
O          -0.68838261269877   -2.32935660216811    0.58509300091321
H          -1.30694812919350   -1.90339197126753   -0.06404774665322
H          -0.88605023244482   -3.26683921867565    0.56733861366705
O           1.40340230864186   -1.49893520780474   -0.97611874293510
H           0.84432803109412   -1.84422676349734   -0.25160472417603
H           2.18910368874990   -1.01556669006539   -0.57735684554744
O          -1.07797533707896   -0.13213681765532    2.22856331867272
H          -2.07654859981772    0.66378785996161    1.30102474486743
H          -0.99375597804934   -1.03697519325942    1.88701778665516
H          -0.29740293210061    0.32942545055415    1.86330738290717
N           3.28417583394990    0.11925413173457   -0.09399790808660
H           2.94914936413806    0.94918458505624   -0.57834402448034
H           4.28275542948116    0.04243288835138   -0.24462517553131
H           3.12138069834812    0.28303968778259    0.89205023749522
