    26
        -50.46705306  Gyration_radius:  2.4701624812 Dipole_moment: 4.737
 S           0.71947562413317   -0.70325351719049    1.93054422310132
O          -0.08667091864820    0.48528570378904    2.03579221670884
O           1.97502114059940   -0.48962919832434    1.21625174801376
O           1.12572092491512   -1.12186360127333    3.40220534711284
O          -0.01154759370226   -1.83704576585882    1.37598472822269
H          -1.50010180276291   -1.11382614661062    0.99120475268024
H           1.67400823795214   -1.88105413704828    3.23583072901824
O          -2.31744542981652   -0.67656110308281    0.67943283598369
H          -2.57045482486019   -0.09558063770705    1.39983736665805
O           0.33818116598704   -0.16101699720676   -2.55260087806683
H           0.53865758977042   -0.44884772830543   -3.44385635684727
H           0.07658854122567   -0.98105325437936   -2.04789959547768
O          -0.45806615465244   -2.24754691961536   -1.20147276802342
H          -1.41669507572993   -2.21293573129593   -1.12948151066059
H          -0.14359558099087   -2.19470690164585   -0.27395521209055
O          -0.21467560672800    2.59967505245192    0.39185241038940
H           0.97627398101451    1.95117666724689   -0.27600189254569
H          -0.25028661925532    2.00444282448406    1.16517724596820
O          -1.79362310130471    1.20601832450957   -1.22570463078022
H          -0.93231500745390    2.27569540328022   -0.20453172552259
H          -1.17300091134819    0.79548213790154   -1.84115629140693
H          -2.06731976891421    0.50185413426834   -0.60402225695507
N           1.72227365702919    1.26887221504508   -0.68082538867232
H           1.30888988737529    0.77340472477572   -1.49312914649843
H           1.90340039055731    0.55369224838595    0.08670888277937
H           2.57730725563156    1.74932221338843   -0.93618482309772
