    26
        -50.44133710  Gyration_radius:  2.67094647399 Dipole_moment: 5.370
 S           0.23089816490740   -1.59581538170293    0.66579072559654
O           0.26382123784508   -1.58047594037167   -0.76985494104689
O          -0.14854989660886   -2.81906594244753    1.28016838017035
O           1.64272895173084   -1.13441180909450    1.17885822437525
O          -0.64747285337409   -0.44071048744474    1.18411842714372
H          -0.12509993950172    0.43064029706782    0.99805411635217
H           2.22934033733738   -1.90257713554352    0.89503998366339
O           0.76637543596260    1.57865635910510    0.62983443852731
H           1.62522104156319    1.30150387489169    0.95916015347575
O          -1.77103075408795    1.62382483433248   -2.42606738887960
H          -1.98007477692149    2.55603616281890   -2.50282705129458
H          -2.25918028591768    1.30083568550040   -1.63528444007671
O          -2.84744382403587    0.97108634644224   -0.05504956329296
H          -2.37379751635027    0.23591500071327    0.34718106321377
H          -2.55489046075951    1.76815672991804    0.42512452300860
O          -1.54948788415840    2.98933062906789    1.28926215278186
H          -1.60254087964144    2.93452841895909    2.24468085887780
H          -0.65867104917999    2.70137103615950    1.04139526698759
O           0.70688370065831    0.87081002367359   -1.79492020281422
H           0.58786079581939   -0.08196465181561   -1.62333640176077
H          -0.15865797681114    1.17129716536385   -2.15982502969026
H           0.78488128065654    1.40733491555737   -0.38782754864810
N           2.51146382049409   -3.34212569283660    0.18227960927878
H           3.33336353946640   -3.93370541946310    0.20767015781921
H           2.25922581456383   -3.17561711779775   -0.78487583684615
H           1.73483398633677   -3.83485787105402    0.61125031308323
