    26
        -50.45111060  Gyration_radius:  2.41261871639 Dipole_moment: 3.945
 S          -0.77871000683146    0.89358586665894   -1.72585377738887
O          -0.02547614545604    1.07529337158481   -0.49612751957388
O          -1.76533935191761    1.87419776265118   -1.98331532078717
O           0.20690345919771    0.78105332143828   -2.89184106849529
O          -1.46006429533573   -0.49646632707950   -1.66454492636929
H          -0.91053816484771   -1.15861417678454   -1.13996330258089
H           0.87646883912393    0.03704620731515   -2.68495960906030
O          -0.07706294004589   -2.15368511941903   -0.27741884256732
H          -0.52494718152480   -3.00194897704540   -0.25465854785549
O          -2.44170211313638    0.83374196398004    0.77360439133619
H          -3.13701887030201    1.05147332470774    0.15009857414618
H          -1.61875317739129    1.11149330648274    0.35031041808460
O           1.74934847299305   -1.10349365391929   -2.14084384173577
H           1.18499311179985   -1.73379681376242   -1.67084439103428
H           2.26817653671341   -0.66598162249155   -1.42860105607861
O           2.41729975969726    0.10176267478712    0.13072716458786
H           2.24012845906714   -0.47515049709468    0.87746544024879
H           1.58403030512081    0.57883953224190   -0.03815705802771
O          -0.73253119767441   -1.02612369449786    1.92283660566805
H          -0.12907227439640   -0.29845244906175    2.20463284663871
H          -1.54414501211250   -0.56043339806861    1.66561594905904
H          -0.26212752744907   -1.72402342403171    0.62723796900651
N           0.66233556291997    1.24646314899451    2.44177914705813
H           0.12868267817473    1.78158754224063    3.11561888340336
H           0.44442996155997    1.61236539745439    1.51997343019763
H           1.64469113210277    1.41926672278062    2.61722843207463
