    26
        -50.46404602  Gyration_radius:  2.4603295991 Dipole_moment: 6.112
 S          -1.24173265782550   -0.22536041704632    0.09753741813694
O          -0.55267659446369    0.89821444347081   -0.74985055961909
O          -2.62698856056800    0.16169272250138    0.17152483178819
O          -0.98688961621917   -1.49546756589388   -0.54801020212557
O          -0.57719490074433   -0.15864807037410    1.42034079020640
O           0.81086149938375   -1.73564560196025   -2.48853039527856
H           0.07898873810094   -1.67834054637613   -1.83540690780033
H           0.41043138502822   -1.62626658454314   -3.35157348159465
O          -2.44683209031086    2.72743278377890    0.26132598584032
H          -2.27542293267050    2.93862832071465   -0.65970484632633
H          -2.66513582285898    1.75401753223075    0.25755317847248
O           1.94847556385825   -1.07232120560798    1.26989472668406
H           1.83926714744208   -1.99659679252653    0.96817160738446
H           1.04837484142556   -0.80325149581777    1.52597467625031
O           1.01362923001282   -3.29904274444194    0.05135415367976
H           1.35134057516222   -3.32353743486556   -0.84900328779627
H           0.16127980730164   -2.83706618022821   -0.01103064354403
O           1.86824598447610    0.25821298284353   -0.97925844679377
H           1.77593357935841   -0.44860724606740   -1.64503146625093
H           0.44496587319855    0.66269378692584   -0.87003906495103
H           2.05837040879505   -0.21437732771135   -0.12086582560124
N          -0.26487069489414    2.33608976676077    1.63683275137680
H           0.58440759462858    2.57899034370324    1.13365224701465
H          -1.13748978365483    2.64831834842044    1.08762515359465
H          -0.36560842500020    1.23426095598293    1.64817224991218
H          -0.25373014896505    2.71597723612424    2.57834534733634
