    26
        -50.46997635  Gyration_radius:  2.47157865037 Dipole_moment: 4.047
 S           0.23408581275043   -1.20134911616157   -0.65741927634392
O          -0.18673918840800   -1.66611984584607   -2.06727149619059
O          -0.97032129751689   -0.97962931004287    0.14390119002862
O           1.08919618815347   -2.21609583495816   -0.09469334705606
O           0.95481531933174    0.08306165958311   -0.81170459405425
O          -2.69164133453067    0.75993930566292   -0.88429740286928
H          -2.16355991348207    1.52681035384877   -0.60789598942270
H          -2.24813278223388    0.00127012467671   -0.45082253557329
O           2.32787909980109   -2.15008996821275    2.19170845734930
H           1.95000844379121   -2.32962479184497    1.29576430476424
H           1.74831510503189   -2.60036173311470    2.80924422721873
O          -0.64590121958960    0.82052790528878    2.05726655148945
H          -0.88348070094534    0.06680105948796    1.46823079462976
H          -0.82445884345220    1.60569502451874    1.52340977767904
O          -0.44855284138882    2.26704928241383   -0.34683457288642
H           0.06665559946029    1.45761295911209   -0.58210201581154
H          -0.27629532008810    2.89576037467816   -1.04914152950798
O          -1.51411351999661    0.27256669353719   -3.15789212045393
H          -2.11505292872159   -0.12260678878554   -3.79219043200568
H          -2.06632542659180    0.52202424703422   -2.36408570167530
H          -0.63182445956568   -0.89155180568773   -2.51072525566361
N           1.89038405065898    0.39405473241467    1.59595456780452
H           2.59383736274257    1.10057876832661    1.78145610154753
H           1.70440203179171    0.28276067560654    0.55570246974026
H           2.17487792554855   -0.55220393141839    1.96606735868472
H           0.93194283744802    0.65311992988594    1.98837047857895
