    26
        -50.45007688  Gyration_radius:  2.50578763671 Dipole_moment: 4.971
 S           1.30545700378114    0.29659488764492    2.05250175643246
O          -0.06728565597472    0.64561987535836    2.34667801793724
O           2.30011133912053    0.79569074094520    2.92436112632888
O           1.43918496642156   -1.23774888609690    1.95687861446319
O           1.57587660073576    0.73218193916863    0.57826488189688
H           0.90432376042733    1.47452852444293    0.37863960989941
H           0.73884802913305   -1.60983206558134    1.34523743420235
O          -0.43615884986720   -2.21637868468050    0.45931475860558
H          -0.62163970907384   -3.11278309905595    0.74500377403373
O          -2.04234860549883    0.92272550480330   -1.00918468335820
H          -1.48133432664420    0.22055412489291   -1.45932840192547
H          -2.66643205161961    1.23082462930307   -1.66695209630350
O          -0.55977196418352   -0.93411400308538   -2.04589614344159
H           0.34393802186305   -0.58054167723193   -2.22995253441506
H          -0.45001275693930   -1.54295551743970   -1.30162064057342
O          -0.27729063521397    2.43107558803939    0.32973243791702
H          -0.52994397634900    2.24742691043828    1.24512300335128
H          -0.95048500117174    1.97994798109858   -0.22842768675170
O          -2.21431618409637   -0.56464241174889    1.30123817878481
H          -1.57467717278825   -0.08140723210394    1.85834483332635
H          -2.37031046246932    0.00424902882579    0.52690379642555
H          -1.21033265268732   -1.64691473187645    0.77645858494437
N           1.96320743198601    0.02972466252104   -2.26747301081403
H           2.09104277249958    0.25173545670382   -1.28430481501344
H           2.09854021384660    0.88339371073230   -2.79412753872262
H           2.69180985488466   -0.61895526610012   -2.53741323728990
