    26
        -50.46705305  Gyration_radius:  2.4702072054 Dipole_moment: 4.743
 S           1.88398509065607   -0.97162109451537   -0.49594464301990
O           1.51090719739516   -1.15288525672463    0.88295094788910
O           2.17800797033564    0.41710461602609   -0.83854993643480
O           3.23425320469711   -1.76672663236725   -0.72082891817471
O           0.91768565470723   -1.54619052294715   -1.42521552323370
H          -0.29985756952236   -2.06253828185183   -0.35931770669378
H           3.42283406474108   -1.56172501056673   -1.63036736846079
O          -1.04165490135768   -2.26886333107352    0.24376875821306
H          -0.62683963505656   -2.67937445953978    1.00530797893124
O          -1.34448729149511   -0.39458729366626   -2.17823726430020
H          -1.91370386081666   -1.08653375436877   -1.82798624283620
H          -0.43560147349948   -0.73799686607274   -2.04424603124198
O          -1.71850980906362    1.76625508800787   -0.76284449042543
H          -2.28226020120405    2.35300077720650   -1.26813601115731
H          -1.55811645369628    0.96877229504244   -1.34073145753299
O           0.31767509519410    0.56991425775546    2.55524042906975
H           0.54941587770839    1.56622383495425    1.44262836817538
H           0.84149406301513   -0.15795008788979    2.16854931160017
O          -2.02075838211562   -0.02300776656669    1.44564197002295
H          -2.10600704355693    0.63647767499832    0.74539023244694
H          -1.77360189138986   -0.85998152496746    1.00322476546670
H          -0.62111862703665    0.32847302890787    2.36527613930254
N           0.68794227651597    2.07962405122212    0.49218560209850
H           1.34165926664872    1.46001438885966   -0.07540882144163
H           1.08273920299230    3.00498347586539    0.61445008474061
H          -0.22608181558151    2.11913840377106    0.00319981666331
