    26
        -50.47220512  Gyration_radius:  2.42004712464 Dipole_moment: 2.801
 S          -0.76229050448677    0.93537923146321   -1.22786658442709
O          -0.41407489699040    0.37749596242145   -2.51111581611425
O          -1.61576641706934    0.04140490431382   -0.45126852997956
O           0.38168917840036    1.39430634115476   -0.46223238960428
O          -1.62760878938097    2.23462185641012   -1.51781389907639
H          -2.03173045225883    2.00739358262985   -2.34787306474843
H           1.67345922822678    0.48444043827565   -0.06556692081259
O           2.41116579428540   -0.13722619969698    0.13462468608920
H           3.18571228030760    0.40677076133474    0.28526355658037
O          -1.06319736736957    0.31063166961160    2.19945813781691
H          -0.90546189580784    1.26363935387298    2.28729390423941
H          -1.40029676983761    0.20818209984099    1.29313083411362
O           1.31938253554304   -1.59241808529444   -1.97958368878612
H           1.95782028264153   -1.15546115837621   -1.39340736671932
H           0.75831773611797   -0.87923683790030   -2.34757050749918
O          -0.78580353509602    2.94311687325767    1.38255447477443
H          -1.52232293249187    3.34736294952028    0.92098681302997
H          -0.26546411782018    2.48648902351709    0.69823849904110
O           0.87096249031250   -1.50479899584065    1.98515066791953
H           1.57537011088514   -1.02966777290287    1.51207313501052
H           0.21425046244096   -0.81918027790743    2.25550065280939
H           0.11065883117176   -2.12589371798828    0.80182753185393
N          -0.40771697787492   -2.30045251329021   -0.13177732526491
H           0.30372148510841   -2.23505268073349   -0.91813870660074
H          -1.04735333777538   -1.48327868184324   -0.26708437363790
H          -0.91342241120150   -3.17856812583867   -0.13480371003846
