    26
        -50.45963366  Gyration_radius:  2.52026894605 Dipole_moment: 3.916
 S          -1.08363111528094   -0.29242616683577   -1.67429927649622
O           0.34077035472148   -0.15387951071815   -1.93385778899050
O          -1.43808472533684   -1.63658637214836   -1.25161452297049
O          -1.58459525017645    0.73268967481995   -0.77723759760531
O          -1.81615901772706   -0.07283823854473   -3.06281717917512
H          -1.61611672936681    0.82971488136463   -3.29359046385412
H          -1.49769987485415   -0.16900771048485    0.63386195998777
O          -1.40955297146190   -0.68083724154490    1.46496554540951
H          -1.96339609862120   -1.45345460627500    1.33724072319858
O           2.00333700763973    0.64507495258685    0.09244856468469
H           1.44003654867194    0.52706740986315   -0.69004916931273
H           1.82501393885996    1.55088157809220    0.41537424887207
O           1.26565415392508    3.05593356475072    1.08778202747330
H           0.30403489214216    2.89579597170256    1.20693315951175
H           1.59665269149151    3.36128146458948    1.93333897705568
O          -1.30916925312218    2.34045315042329    1.43367681863941
H          -1.49656271270468    1.98883632916866    0.54970300988140
H          -1.37520256524260    1.57938027000113    2.01882168896712
O           1.20343274739482   -1.37925909513606    1.53272840777911
H           1.62310982882708   -0.55968965015018    1.15596065914664
H           0.27082424670941   -1.12827629802546    1.69781740612791
H           1.13692599845211   -2.12088327558117    0.25983797388105
N           0.96784903307413   -2.44328209934641   -0.78488426119833
H           1.37691449550520   -3.34288705243323   -1.01098038229797
H           1.31047917794343   -1.68152513251161   -1.38790192962464
H          -0.07486483144253   -2.39227677765337   -0.95325860909875
