    26
        -50.46705301  Gyration_radius:  2.4701993212 Dipole_moment: 4.735
 S           1.85714082817914   -0.87146470528711    0.72759026001668
O           0.94986453832792   -0.52488390094952    1.79062723712959
O           2.35328806364739    0.28650664641941   -0.01093542287734
O           3.12931137934807   -1.53229790618998    1.39921827479084
O           1.31152610378273   -1.87534964427854   -0.17893646937276
H          -0.26295083374394   -2.05323488027531    0.43407203897330
H           3.68051861487053   -1.69024376223929    0.64022217889986
O          -1.19675133163409   -2.08249311355243    0.72335424600213
H          -1.15229234482049   -2.10696469377980    1.68145967904935
O          -1.14768244753714    1.10828578234866   -2.02721676513231
H          -1.41675664023754    1.37755519544499   -2.90612895941033
H          -0.82136956789116    0.16910366679132   -2.11182477132308
O          -0.37861170846135   -1.38251883068012   -2.15700554200029
H          -1.08421106234237   -1.93430492444579   -1.80625125808331
H           0.37580574868341   -1.53964407618290   -1.55031096436428
O          -0.70024719497730    1.57851828950664    1.99549384190821
H           0.02344730046231    2.06382397855174    0.76002156384935
H          -0.11364887732840    0.82021753408284    2.18110399112606
O          -2.42793962044691    0.33307769939163    0.40892944511846
H          -2.18265171771689    0.64270037337376   -0.47223314486100
H          -2.07852427932309   -0.57758748986308    0.48486525891871
H          -1.49696911415373    1.17806332382479    1.57081132589314
N           0.56483547110025    2.16474447351523   -0.17939497471621
H          -0.07118419252557    1.90203303017676   -0.95576642309194
H           1.35000114910509    1.44700678379551   -0.13652939696820
H           0.93605173562826    3.09935117050812   -0.30523523945680
