    26
        -50.44133691  Gyration_radius:  2.67044945444 Dipole_moment: 5.366
 S           1.03585993719877    1.01984952238527    0.96497749594220
O           1.72842376822239   -0.10596807475081    0.40339516071049
O           1.57898919492998    1.57104059292535    2.15612499775327
O           0.92841270447598    2.11841919825380   -0.15354152667473
O          -0.45294270752945    0.67569203813956    1.16422157672314
H          -0.87107445215513    0.62615979351149    0.22109760039769
H           1.89005803531593    2.39650711818457   -0.26601513554024
O          -1.28956390447499    0.57726923285681   -1.21794002120061
H          -0.91866029321940    1.38604376832327   -1.58013926131384
O          -0.76405712320519   -3.29133290083454   -0.48701275620224
H          -1.54704045512967   -3.68029732290734   -0.87971433391082
H          -1.06261654326215   -2.86621055485643    0.34847688379003
O          -3.56653850032864   -0.52341150316603   -0.03800672617918
H          -4.00062234013803    0.21820893956566    0.38650766406599
H          -2.89716057700299   -0.15324804749202   -0.63198368897010
O          -1.77240441851371   -1.86896218554693    1.55419676731408
H          -2.53571617580474   -1.50226442171703    1.07005206051831
H          -1.20889181066515   -1.11634439987214    1.76069872854799
O           0.42527233354616   -1.22166193710653   -1.67345162839448
H          -0.65458391919195   -0.18152472472048   -1.51170087798230
H           1.06013462063544   -0.93793782615394   -0.98951529840641
H           0.04973888333166   -2.06778446029557   -1.33350124567962
N           3.48498671370956    2.31167576290800    0.06410435529334
H           3.72221196546351    1.36093952756475   -0.19358329052846
H           3.39435569358635    2.33169662474424    1.07462648589623
H           4.24342936019456    2.92344623005295   -0.21237398599497
