    26
        -50.45259211  Gyration_radius:  2.47771107669 Dipole_moment: 3.704
 S           2.00026898365832    0.47636275035419   -0.08563693661160
O           0.99931970590502    1.45743083481101   -0.48981114257537
O           2.21307934136849    0.43137712001854    1.34164112352444
O           1.70131830848796   -0.83443429168356   -0.65003241073735
O           3.36201238820043    0.95348757608521   -0.73666192370060
H           3.12934797818111    1.13024669770717   -1.64295320614659
H           0.82739025338231   -1.39872423756209    0.58794641818260
O           0.35654355103548   -1.63686147579970    1.42488663165995
H           1.04451963484091   -1.59335821584455    2.09581990246126
O          -2.88934804674926    0.50040073612523    0.19314369389937
H          -2.29047123738416    0.66674093405081   -0.60969153161293
H          -3.43454887357914   -0.25612495345194   -0.02793975194502
O          -1.25787111999782    0.72316044453063   -1.76312466795217
H          -0.42902363062622    1.06589350986006   -1.37887059394560
H          -1.06314166416028   -0.20855281346403   -2.01702780215747
O           0.31400614765800    2.08621600005025    1.95683173869253
H           1.14712593419730    1.57637711996947    2.05984426264545
H           0.31916773817600    2.25359733252182    0.99541097977429
O          -1.30212300612413    0.17908526771492    2.10605767863596
H          -0.68547734207113   -0.59555830642682    1.83281885790851
H          -0.68770843071889    1.04169151939362    2.11914440055693
H          -2.00507079501536    0.31716307140721    1.34046212855365
N          -0.51318575947042   -1.86390932643120   -2.17072786614583
H          -0.91780641874133   -2.62974686313246   -1.64623809572658
H           0.37855398453601   -1.63876752530475   -1.73126354663132
H          -0.31687763499117   -2.20319288548346   -3.10402831060818
