    26
        -50.45007686  Gyration_radius:  2.50584978893 Dipole_moment: 4.971
 S           1.67707431193565   -0.93331209491007    1.52459016007240
O           2.35447003578823   -0.54357052933120    0.30722328681626
O           2.32912423271714   -1.87392358085950    2.35434686770751
O           1.33917061926382    0.32413853828267    2.35282125232100
O           0.25753013292474   -1.43331229454332    1.11075517264207
H           0.33942698871298   -1.73251702972745    0.13834593531516
H           0.87781680039773    1.00397555675324    1.78007295501489
O           0.24121602313314    2.12844486829743    0.85072592618094
H           0.43719678071416    2.99310239836270    1.21614489085679
O          -1.94784094839170    1.10699865081415   -0.59845642301520
H          -2.30305246375684    0.34632184935864   -0.07803165700789
H          -1.34759387513782    1.57057736278957    0.00278974160550
O          -0.32202533460077    0.24455417411842   -2.42407055487293
H          -0.99267919404703    0.57116089999976   -1.75017021816184
H          -0.75094543171120    0.29917348604598   -3.27853236237107
O           0.72379907344811   -1.96029742698694   -1.31567562708568
H           0.29680112037522   -1.22604310529250   -1.81240239299551
H           1.63882519054449   -1.68226772840226   -1.17122638162885
O           1.72674507649118    1.59486359138043   -1.17576807418958
H           1.10388599599024    1.18953750738047   -1.80452338923261
H           0.81995506307543    2.02587324222274    0.02682698850849
H           2.16553045300365    0.84984912135630   -0.72246466575026
N          -2.66276652380232   -0.99819671396170    0.95034479229873
H          -3.19480180995957   -0.80297292134699    1.78899018699461
H          -1.72301027249990   -1.26334415231807    1.23103588975765
H          -3.08385203484138   -1.79881366950575    0.49630770029396
