    26
        -50.47392072  Gyration_radius:  2.43979983885 Dipole_moment: 2.164
 S           1.31458577377289   -0.55689555380558    1.30325235856159
O           1.73796852763983   -0.18720459854596   -0.03878492311090
O           1.30916432825829    0.53925898770227    2.24418855425741
O           0.05051600070153   -1.27980184383596    1.26854734655359
O           2.40357817703909   -1.57526932803854    1.83373498869236
H           2.36556914498407   -1.39228486870654    2.76530616511745
H          -1.26579319664156   -0.26466634945955    0.78609957283615
O          -1.91639593505282    0.37402347236737    0.44125456197574
H          -1.68678376862898    1.20906293990612    0.87360558140852
O          -1.16427072425150   -2.84482692593946   -0.49141164000628
H          -2.07848582760181   -2.56108036588321   -0.41177965610667
H          -0.70119799069708   -2.43881974214948    0.27135522977933
O           0.76374417370385    2.24062944417882   -0.89152696796555
H           1.28724969809285    1.46849003308995   -0.62174263819894
H           0.32934997263163    2.54484647216567   -0.07899900095513
O          -0.41798738721493    2.40672804908612    1.61548659582677
H          -0.41583373793824    3.09007254976206    2.28726309185646
H           0.23367802129710    1.72677525587616    1.90881952295636
O          -1.22049367947414    0.92923645576905   -2.08283622225227
H          -0.52742702103979    1.58316291775416   -1.82772846271021
H          -0.38166223248095   -0.31517113250857   -2.18436243742393
H          -1.69235163879877    0.75087264384889   -1.23790401061199
N           0.27067652178011   -1.17360903214441   -2.01063387113615
H           0.74879582884352   -1.47007919811237   -2.85343243525833
H          -0.30116654414315   -1.94547435696786   -1.58965911297589
H           0.95497351522078   -0.85797592540983   -1.27811219110720
