    26
        -50.46815425  Gyration_radius:  2.47595091005 Dipole_moment: 5.891
 S          -0.57987966089098    0.31552987256382    0.92278492791409
O          -1.31730871854712    0.55961703670752    2.25638513259719
O          -1.29978234746563   -0.70327540076773    0.16994291148013
O          -0.60069333216063    1.59415381304692    0.19959725562419
O           0.79075615766295   -0.08560783635383    1.21071753207723
O          -1.38908735355514   -2.93432419709001    1.59242935972807
H          -2.30651706923773   -3.20844761146415    1.63689625595766
H          -1.36118073684651   -2.17057699890887    0.97671354978939
O           2.31042491380692   -0.34873613802820   -0.92510243001488
H           1.91896499232637   -0.41048018025489   -0.02539882300310
H           2.03190172094218    1.06165209659280   -1.13257529238012
O          -0.94967752272510    1.63649077483979   -2.44863603688852
H          -1.85267023039766    1.66898189623206   -2.76748387241769
H          -1.00648664052621    1.61840638294237   -1.46965145386378
O           0.05385472095686   -0.94797616683905   -2.13271568775897
H           1.61952522152076   -0.76105625891681   -1.50304326627137
H          -0.48283759859844   -1.03693080288311   -1.32182958164086
H          -0.25985911641625   -0.12615848183475   -2.54052415861462
O          -0.11976832456238   -1.39764432700055    3.37903918248624
H           0.62176356633522   -1.14362317015320    2.80950701855293
H          -0.95108663888485   -0.16283957708475    2.84988261223182
H          -0.55279783915782   -2.14491142785671    2.91445782337556
N           1.56636552201579    2.07525662005964   -1.16904000187934
H           0.75893606606027    1.99946177426267   -0.48066415177723
H           1.14785995151287    2.23575936287141   -2.08532118784218
H           2.20928029683130    2.81727894531544   -0.91636760745990
