    26
        -50.47330248  Gyration_radius:  2.42951534052 Dipole_moment: 2.008
 S           2.02049121726166    0.68944497083306    0.53543486339644
O           1.85416241078133   -0.43721014441868   -0.37237102414354
O           2.23519214735341    1.94403798329207   -0.12737279382121
O           0.92781274825944    0.73180037808942    1.50887004647302
O           3.33196588302943    0.40020746803555    1.38663100361437
H           3.95217192363125    1.00210272529973    0.98833211651983
H          -0.16176606413019   -0.37390044722863    1.90819014988967
O          -0.88500059756348   -1.02546770109286    2.09370818035726
H          -0.94033467469943   -1.09495228535125    3.04761426819868
O          -0.56255671259313    2.18987722599896   -0.10040715767483
H          -0.11782129238665    3.03243765801243   -0.21808361094393
H          -0.00094122154411    1.70329200190752    0.54080191692168
O           0.30853673677173    0.67012011486677   -2.23177433241491
H           1.05177835254131    0.29387773735682   -1.72011286216257
H          -0.01766590913804    1.39801203320840   -1.67297770735617
O          -2.55895117218023    0.26683822047969    0.32880287082607
H          -2.11596244220073   -0.18638933130986    1.06996052754095
H          -2.07671564508943    1.09845180692452    0.20815864273709
O           0.17633267488937   -2.47230222860899   -0.00276731701694
H          -0.84518978027592   -1.84306886588066   -1.03696830751489
H           0.92211057777207   -1.84841358228985   -0.13546521306552
H          -0.21068356950283   -2.21841639166845    0.85107137605037
N          -1.45127943688677   -1.17076939109928   -1.60225907487026
H          -2.05777165024767   -0.64459960038277   -0.91322510324388
H          -1.99716498020539   -1.64853163976005   -2.30890559604598
H          -0.78074951364452   -0.45647871523942   -2.02488586224852
