    26
        -50.45007690  Gyration_radius:  2.50581686291 Dipole_moment: 4.972
 S          -0.52985975943891   -0.34763504724299    2.36768561404160
O          -1.27087598448855    0.80907883726367    1.91409721423721
O          -0.32679798718653   -0.47964244837091    3.76047316448463
O          -1.19574268619320   -1.63130548496816    1.82908780648519
O           0.82722406464265   -0.34497567518641    1.59655785418220
H           0.99240025953050    0.62516067242093    1.32569327854252
H          -1.34950476094176   -1.55553691983166    0.84229623516656
O          -1.69288599230411   -1.39806715359308   -0.70375033383133
H          -2.44953068929912   -1.94604808698090   -0.92001062588273
O           0.07611267223061    1.86887456281766   -1.59398676013399
H           0.30806068749971    0.92484674322724   -1.85008509720811
H           0.34823519052333    2.42095696117871   -2.32761785101468
O           0.58687620187207   -0.60906424266402   -2.15866549012581
H          -0.17043277603156   -1.06578986686908   -1.76551008379481
H           1.37273142539209   -0.91574122217099   -1.64480787090099
O           0.89932954241919    2.09529139307221    0.94644664557222
H           0.05726510789131    2.21426953191287    1.40713628038850
H           0.68154882380338    2.09981057467920   -0.01314921141414
O          -2.33667276675442    1.08222004635315   -0.52620264016499
H          -2.01812026689446   -0.43972111567072   -0.71616521730559
H          -2.11925528935909    1.12330823745925    0.42467698394947
H          -1.60470902447777    1.53323928519990   -0.98262417824217
N           2.57297224226541   -1.45001039299864   -0.51848562472643
H           3.44184723315315   -0.93068564421291   -0.52262315331524
H           2.80200506914768   -2.43600763176012   -0.52675814081814
H           2.09777945296277   -1.24682591307766    0.35629119174697
