    26
        -50.44736867  Gyration_radius:  2.47016860133 Dipole_moment: 3.372
 S          -0.39377110714659   -1.32209251085840    0.97727787528921
O           0.47080118313551   -0.18659075552134    1.18434713508315
O          -0.16769126295326   -2.41540141897089    1.86222203739787
O          -1.87581552794312   -0.80911426994446    1.11909032508713
O          -0.33972380712533   -1.78785466051768   -0.46016638783784
H          -0.55316104342247   -1.04951634420598   -1.20218474058647
H          -1.92701670913025   -0.60385462383556    2.08014077565565
O          -0.79437499501028   -0.13181254124642   -2.25121941179011
H          -0.78242962545423   -0.61949190342415   -3.07730428541383
O          -2.24635441974692    1.52685585815759   -0.50103266302583
H          -2.37928491783991    0.79533147147743    0.11209467156345
H          -1.99657059711466    1.11931812456812   -1.33959976389229
O          -1.09853596215250   -0.53814224528433    3.58358161166789
H          -0.39017195202062    0.10877809561961    3.51381572279054
H          -0.68838241871837   -1.40641366382226    3.46036471346817
O           0.31198844998643    2.34795908729379    0.08516191600365
H          -0.64679791420855    2.33434172788622   -0.09014775461022
H           0.48131702913682    1.55034983485700    0.60782674836724
O           1.27301967665415    1.27081207641240   -2.13574186615385
H           1.91407150347945    0.63198293074972   -1.74205809710217
H           0.06652512113401    0.48407703012371   -2.25678620332396
H           1.01979390058268    1.86613832627685   -1.38673051106989
N           2.62420398730608   -0.61519992408206   -0.73956862485426
H           2.52638800442800   -1.57696516651606   -1.04019970499028
H           2.01366334474058   -0.48943614261617    0.06437474462996
H           3.57831005940147   -0.48405837258514   -0.42755827235259
