    26
        -50.45892236  Gyration_radius:  2.425338284 Dipole_moment: 3.961
 S          -0.10428521641197    1.78425284205438   -0.39106327488668
O          -1.18109253175569    2.06077131970587   -1.31326524701260
O          -0.60381171537614    1.28655487591586    0.89232193140174
O           0.92388455997750    0.91398118510960   -0.92913716037107
O           0.60075094680662    3.16407415396265   -0.09210207814784
H          -0.14691019040457    3.74953776488142   -0.13149165407903
H           0.38294735191089   -0.53722376678078   -1.36808978366993
O          -0.01328588611523   -1.41087036815346   -1.61386469943778
H           0.57103424302120   -1.79792224148415   -2.26734067354177
O          -2.44920724929812   -0.46670491129706    0.79003553665940
H          -2.64806880709595   -0.40526104854286   -0.22759878311557
H          -1.81687315368247    0.30756620201350    0.95020396456853
O          -2.48474648877173   -0.19036174924326   -1.71587813848724
H          -2.11553989859760    0.72152129561705   -1.71697576558498
H          -1.73964935908729   -0.77030485068348   -1.94445487348317
O           0.84085342574671   -0.67273574164591    2.14884320359671
H           0.37550537145263    0.13495244180786    1.87388555083159
H           1.73458851296655   -0.59523355539120    1.74818983028917
O          -0.74942573852723   -2.25725430814621    0.87234863277423
H          -0.41349817481226   -2.16896879465761   -0.03983030660015
H          -0.07930986794059   -1.78495411830656    1.45690887569926
H          -1.78156456574165   -1.34995069042411    0.89407045312799
N           3.08113718125527   -0.06654525918129    0.72162393767998
H           3.71295608884094   -0.68559245760479    0.22964247195020
H           3.63696471616483    0.66935967774053    1.13893424897683
H           2.46664646547997    0.36731208275011    0.03408378088494
