    26
        -50.44736864  Gyration_radius:  2.47019949428 Dipole_moment: 3.374
 S           1.28176944836336   -0.50807863149159    0.97938438576404
O           0.72909123302175    0.79511846084295    0.70363329129430
O           2.59092181678038   -0.49649398173320    1.54114509329646
O           0.28241648729793   -1.23966446263052    1.95203011552291
O           1.24525571187932   -1.38254896365746   -0.25356300063964
H           0.29042231054617   -1.50168490510817   -0.71741584834261
H           0.39140733041625   -0.72052977764663    2.78087146330796
O          -0.92715188787369   -1.69178169031702   -1.41226865148324
H          -0.76770873038383   -2.32145105094528   -2.11832060955885
O          -1.85443064143956    1.47540337262518   -0.01829220193573
H          -0.93651878924252    1.42966691548366    0.28722667409054
H          -2.28989600287437    0.69856931427480    0.37803861224111
O          -2.38238667303775   -1.05798587576008    0.91212061402261
H          -1.61529134552865   -1.24375368753055    1.46512907277696
H          -2.19877492995102   -1.48174781204894    0.06453114535934
O           1.15119413108892    0.61239743806911    3.55419981345248
H           0.86464039480539    1.42089974068188    3.11904842320006
H           2.02278711178181    0.40052257239151    3.18995167969289
O          -1.24745130457742    0.56930770087200   -2.43230797672719
H          -0.31403967284257    0.88388186976835   -2.49375313520669
H          -1.10472648214530   -0.75906168779576   -1.87991913359023
H          -1.62189311878952    1.04549398246003   -1.64966841672568
N           1.36188243560441    1.21961385754013   -2.11473705279930
H           1.26119983736704    1.22179989786415   -1.10242013076274
H           1.73699071827741    2.11854194935728   -2.39065721065167
H           2.05029060145531    0.51356547443631   -2.34398700559820
