    26
        -50.44729880  Gyration_radius:  2.49668560108 Dipole_moment: 4.457
 S           1.61310936094056   -0.30326067461796   -1.15358634357529
O           1.85945992196627   -1.39060263793673   -2.05079575461398
O           2.30960946122616    0.91576059054761   -1.38748602424908
O           0.10260365174758    0.03334396537109   -1.11023937084737
O           1.91168586687638   -0.83689731471538    0.27613188926885
H           1.28919409173633   -0.46030375913149    0.98008971663065
H          -0.42910469482852   -0.69824838078784   -0.67347263972028
O           0.23604763476167   -0.09745353072352    2.03721851268666
H           0.65072840347412    0.20211204070785    2.84743640643375
O           0.84172871593833   -3.37453136136406   -0.62698899196290
H           1.55494161383543   -3.56385539534123   -0.01360051615351
H           1.22510162987431   -2.76217990623422   -1.29044050933137
O          -1.07341392763593   -1.80246527857589    0.26191368182485
H          -0.74189265430987   -1.49441260062721    1.11856794415953
H          -0.48286624777207   -2.54272587768595   -0.02438507123977
O          -3.04692866906860    0.21619214433470   -0.01080516079428
H          -3.84119017330932    0.01647671592100    0.48744559935417
H          -2.53243872892108   -0.60082578759993   -0.06185651083223
O          -1.12866926554964    1.83226694406244    1.15052857621756
H          -0.32125328665196    0.70267093713803    1.69114503205147
H          -0.56474364798215    2.29568771438044    0.47237956010319
H          -1.85047694840397    1.40651568875441    0.65398468660423
N           0.44498620788404    2.99410388091039   -0.67940088137571
H           1.14154664336296    2.29322573547963   -0.93024681872830
H           0.93735624115859    3.84942894093866   -0.45227494887204
H          -0.10512122025627    3.16997720678570   -1.51126204306931
