    26
        -50.46387061  Gyration_radius:  2.40661223163 Dipole_moment: 7.323
 S          -1.72260774554413   -0.03194905795042    0.37667793364294
O          -1.22897792703745    0.29275985960124   -1.07463639596051
O          -2.27688753019701   -1.35401435332671    0.42610509198432
O          -0.53919623184668    0.09775316017927    1.24600844937748
O          -2.65968238909755    1.06153795545036    0.64082019487926
H          -1.99032213257702    2.14486363009896    0.02653419134772
H           0.59742754727233   -0.96253312775709    1.56030302771946
O           1.39160713994630   -1.54979770441227    1.67495285971371
H           1.63041164044750   -1.48937755839992    2.60093963713343
O           0.95986034212089    1.99949638673932    0.32942842587394
H           1.59673739324775    1.48977837210217   -0.18913679131590
H           0.44397883978232    1.30785151253090    0.81419842350971
O          -0.28263074277358   -3.08761944165080   -0.03110255462697
H           0.32457271058013   -2.86808957425839    0.68745327288854
H          -1.11302003777632   -2.60688957964164    0.16176161126408
O           2.55063103375748   -0.26890754027961   -0.40295515214111
H           3.44860609293444   -0.56769241603080   -0.55261881716488
H           2.22487509920683   -0.74325185290478    0.39344793621464
O           0.48986355357355   -1.37845557887641   -1.87722385617062
H           0.24894493591533   -2.16188638768079   -1.31967739110386
H          -0.58296765072653   -0.41268860541834   -1.43880490034498
H           1.29596125675090   -0.99946810884994   -1.48456064566073
N          -1.35956894446695    2.88834986452074   -0.52175960976920
H          -1.59081768733643    3.84356476445117   -0.26770717238220
H          -1.50423759246004    2.71773896931614   -1.51320550733844
H          -0.35256096322800    2.63892641257355   -0.26524226134724
