    26
        -50.44503088  Gyration_radius:  2.69255212338 Dipole_moment: 6.882
 S           2.35406752544087   -1.09528004217198    1.16628835446791
O           1.12383387719210   -1.41959217218086    1.85116010480804
O           3.37434412634632   -2.07846091194102    1.19064602272256
O           1.98512963769006   -0.74969557407432   -0.31929389165498
O           2.86852574218551    0.26563056118091    1.64694648947866
H           2.02492596214009    0.80626922572429    1.78167384702026
H           1.41607985930653   -1.47483146612889   -0.72096314608737
O           0.35842195193470   -2.46708260331310   -1.34226871664374
H           0.62432747560153   -3.37732496830076   -1.20194057115515
O          -1.02130939810209    0.87363108201861   -0.12725245556837
H          -0.55258941170399    0.74426188836186   -0.97848532087969
H          -1.69785073821507    1.56766734505715   -0.29095218298997
O           0.54169020018962    1.24144392652052    2.00566972547215
H           0.31436276362959    0.43026881274311    2.47578355878261
H           0.00107679198453    1.21253803984140    1.18071559511476
O           0.35010835365676    0.26406402400807   -2.37759836614825
H           1.23550816018203    0.31934586662315   -2.00245163282292
H           0.16656965469985   -0.67884140701960   -2.46241013925222
O          -1.21926618412129   -1.74730187729396    0.56300529855892
H          -0.37269570817882   -2.27601695494392   -0.67384761363979
H          -0.48815344579097   -1.75019680350680    1.20734363728391
H          -1.35651860611470   -0.80375637868476    0.34951488635135
N          -2.83679658388935    2.84787289298422   -0.67057042730250
H          -2.61490128116654    3.68079390938086   -0.13960550917207
H          -3.79021120831146    2.58381013310439   -0.45634703835249
H          -2.78867952658692    3.08078342201375   -1.65476050839541
