    26
        -50.44729884  Gyration_radius:  2.4966929232 Dipole_moment: 4.458
 S           1.19740931004529    0.08027485488634    1.60740765617712
O           1.60162033436330   -0.99871360175818    2.45614243213904
O           2.02830351285032    1.23515920850459    1.56761935007308
O           1.02560492275069   -0.41098994490680    0.14935280513301
O          -0.24703327627269    0.46182594247243    2.03894854651916
H          -0.83486209310275    0.73770451550357    1.26237888823066
H           0.24107209862233   -1.03117017453128    0.05593953027502
O          -1.82150614732625    0.94149743746515    0.10307798274931
H          -2.35086068994286    1.72916325260213    0.23533837950171
O          -1.16149228683699   -1.76639455162065    0.02880911668266
H          -1.10135916817279   -2.14519957391355    0.94074215530357
H          -1.74381819688279   -0.99405544049038    0.08363679553058
O          -0.66442069143198   -2.36097236316944    2.54443193525356
H          -1.16311314935525   -1.87184639782738    3.20230789007213
H           0.24805002713212   -2.00424084321113    2.59199366384104
O          -0.44725168622093   -1.37989963362363   -2.68879373026322
H          -0.64250556489283   -1.75050481324787   -1.81737880793559
H          -1.11787153947304   -1.70873074949370   -3.28976943754182
O          -0.48396218834015    1.29895269124959   -2.00797665552403
H          -0.34192326274194    0.40047847301946   -2.35632619871860
H          -1.28472577161482    1.10339326148787   -0.76641915946585
H           0.41287257324020    1.63006708954231   -1.72756745543516
N           1.90928237275978    2.15302039214959   -1.16030588101096
H           1.97232045087883    1.87218997009845   -0.18229165338957
H           2.14215903834701    3.13720978022607   -1.21331753002791
H           2.62801107160398    1.64178123856392   -1.65798061816039
