    26
        -50.44741011  Gyration_radius:  2.70385468476 Dipole_moment: 1.622
 S          -1.27527175047820   -0.15015725793693    0.06014184321719
O          -0.41165960524176    0.55051284883296   -0.85710251848970
O          -2.67272720658731    0.00527333377114   -0.16164982475639
O          -0.89172836371542   -1.65500184579480    0.04346674595483
O          -0.90647751261540    0.24547938587973    1.49957711072427
H          -0.01189181281018   -0.23504593045181    1.68593408981483
H          -1.54758997849227   -2.09268578187942   -0.61840603142918
O           1.30722053642156   -0.92550096220339    1.80229507764956
H           1.11801255884958   -1.82054320342639    1.50915711611740
O           2.63951002736403    2.65316644613144    1.12756002399426
H           2.07787146426888    2.42161988889612    1.89527859335921
H           3.49242153601175    2.90895804293953    1.48145909442054
O          -2.62676883549050   -2.33008902841308   -1.64104339010727
H          -2.23496662840376   -1.81694967006418   -2.40412942258092
H          -3.28072607943885   -1.73561824550644   -1.25303569305032
O           1.11286658296056    1.63523170561095    3.13746225176907
H           0.19562136899779    1.63470663985585    2.84716489914616
H           1.39795840020732    0.71487205274816    3.10953166219407
O           2.19921128288428    0.35413849564992   -0.21826287595396
H           2.45350882179345    1.23321363432944    0.13425619609605
H           1.78578279342789   -0.47184058836863    1.02359615125737
H           1.32312090906519    0.48686634363502   -0.62484070953506
N          -1.44762721687751   -0.62216854877358   -3.29822280372127
H          -0.70172386171108   -0.90567578004281   -3.92155419319056
H          -1.03198342973629   -0.07784800549750   -2.54388885609905
H          -2.06196400120361   -0.00491399119667   -3.81474453653306
