    26
        -50.44741013  Gyration_radius:  2.70380819486 Dipole_moment: 1.628
 S          -0.19068198833355    0.30857694174071   -1.23466484718989
O          -0.36100038816250    1.03993014486145   -0.00419008832169
O          -0.60778087089151    0.98001331580519   -2.41849149854658
O           1.29917035675450   -0.11423866324948   -1.35221352288088
O          -0.88873890334442   -1.05568874173189   -1.10919841315342
H          -0.28143781729419   -1.60779144965663   -0.48289531582318
H           1.73873124747606    0.60882862162891   -1.93854243101301
O           0.64359409384087   -2.27139206826682    0.48388223835814
H           1.51113333314491   -2.13192951183619    0.09573445479071
O          -2.16137015157529   -2.90509223781861    0.80347598708538
H          -1.23249652793941   -3.16168100980110    0.77994282114787
H          -2.30067434575991   -2.35226073558705    0.02847194328997
O          -2.13998821054202   -1.30150063012075    3.00216405678814
H          -2.26701440626026   -1.84137642845656    3.78353104870761
H          -2.28886666830506   -1.88735767170165    2.23199088544161
O           1.99658792363577    1.84008664253780   -2.76575452608425
H           1.17353590137088    1.81018294222189   -3.26912000648669
H           1.84254461697753    2.53471371592073   -2.06370635268086
O           0.27033355047341   -0.40298453731958    2.18235313284913
H          -0.58344073030199   -0.62231938930245    2.61215324885718
H           0.56916640295745   -1.60119529634651    1.24976628360438
H           0.05281038997928    0.27328931284073    1.51466470401366
N           1.19292210966708    3.37182139824935   -0.75022107572094
H           0.62620524991239    4.17378086515463   -0.99697592456163
H           1.81925023046182    3.65530945051492   -0.00686140660184
H           0.56750558024137    2.66027502964759   -0.37529537513893
