    26
        -50.47416870  Gyration_radius:  2.42065293436 Dipole_moment: 2.047
 S          -1.22070384597003    1.41994181830126    0.70489437005187
O          -0.25678653982476    2.03804994411258   -0.18640421032122
O          -2.22459284696651    0.65895660122149   -0.02262861753893
O          -0.58305951685928    0.66182979817832    1.76788976480674
O          -2.01348137977756    2.58356334743733    1.42870735499716
H          -2.69510658528766    2.77623247412392    0.79445089871782
H           0.91712360895459    0.01869445565855    1.82105826027677
O           1.80259174812501   -0.41683100320392    1.79238382865403
H           2.11667863086859   -0.43771543303878    2.69740672683673
O          -1.67266566111630   -1.71512986229045    1.21466563809968
H          -1.31379007822222   -0.91165074152470    1.63318177053674
H          -2.29181686927447   -1.36527296122512    0.56516504254866
O           0.70100806225400   -2.43446286692620    0.23516132803771
H           1.23568307924408   -1.91606809397348    0.86015720759551
H          -0.22207642753181   -2.34653324822970    0.56810510287942
O          -1.08290270673487    0.60766326055332   -2.36837227830445
H          -0.65185756814661    1.45900133650991   -2.22823832872513
H          -1.64771069340309    0.51848390989417   -1.56821502009076
O           2.19104331117077    1.04275930320401   -0.50447483931337
H           1.36442382571315    1.55758995473384   -0.38288265364644
H           2.33524597716168    0.60131297792292    0.34863353521896
H           1.64248811879477   -0.13008385449589   -1.41794851971063
N           1.04754990594918   -0.89805821194475   -1.85973993331615
H           0.86119618103191   -1.61464980155345   -1.08763809425285
H           1.51493193643452   -1.32590542830712   -2.65070630781047
H           0.14658634344941   -0.43171768510106   -2.15461202624180
