    26
        -50.47330246  Gyration_radius:  2.42956410053 Dipole_moment: 2.006
 S          -1.90171766935975    0.35168243187892    1.05108533513220
O          -1.71322766628473    0.86322999365327   -0.29943477168678
O          -2.59831933736005   -0.90174589565518    1.10653808283170
O          -0.63111950415019    0.33694917013698    1.77820862617523
O          -2.81273304740338    1.40670719058120    1.81611422644102
H          -3.64906355635265    0.95324787178792    1.83877764217884
H           0.76883240752133    1.04762340077765    1.45530264279210
O           1.65503566223447    1.41807922767132    1.21150598977693
H           1.98509766497051    1.85413098903489    1.99811022950738
O          -0.05598794262158   -2.07707926088437    0.89506649430810
H          -0.71129192214369   -2.67884879003307    1.25556616088903
H          -0.27938553146798   -1.20592935118979    1.28803167057573
O           2.39865210361137   -0.98545324721406    0.08965239071946
H           1.70841020369069   -1.56451556365593    0.44598776983734
H           2.30570229181553   -0.14241341139388    0.57083467871831
O          -1.06893696585507   -1.37931304427586   -1.57464630054314
H          -0.79630635270506   -1.87352255895288   -0.78100578444738
H          -1.52308572399276   -0.59045695391315   -1.21783953375832
O           0.45863432559748    2.13693386505162   -1.16856876369932
H          -0.42721264111078    1.81996040738800   -0.88976633294270
H           0.98852036673235    2.14105784695956   -0.35459296335882
H           0.96321697791813    0.82147646875975   -1.89268244294413
N           1.20065059307696   -0.18996428130465   -2.13647249944743
H           0.28226571808967   -0.72977283364416   -2.07415301753867
H           1.82089741997661   -0.55894920007147   -1.36288563135707
H           1.63247213559134   -0.27311449147203   -3.04873389815594
