    26
        -50.47068169  Gyration_radius:  2.43157143545 Dipole_moment: 3.189
 S          -0.87930056378556   -0.17475429795638   -0.16546445100779
O          -1.33635743857580   -0.02594056740448   -1.64354210168418
O           0.57541670494377   -0.37590345313733   -0.17402318475482
O          -1.22537394970643    1.10522468200323    0.45348262513377
O          -1.54974139054912   -1.29814614895264    0.44928128087073
O           2.12608640525711    1.80247971401923   -0.03130093828912
H           1.80843823197344    0.89216653636060   -0.19402632299301
H           1.56369476433811    2.33955088986968   -0.62504692463649
O           0.09754124289617   -3.14403550020766   -0.46801523278348
H           0.89725528490322   -2.61054721461881   -0.42650376587457
H          -0.57855509742302   -2.61425299039881    0.00530331565351
O           0.55649785192038   -0.83614376937869    2.43371791161852
H           0.70712882135987   -0.81021772485264    1.46738226982907
H          -0.30734199607832   -1.24630681997285    2.52965728135149
O          -0.03987996012993    2.62196649430788   -1.41352216642787
H          -0.23246993015593    2.22218142077988   -2.26400480417629
H          -0.60568194452596    2.14774049295319   -0.77660038827186
O          -1.07713966730282   -2.37335573237987   -2.69375378640684
H          -0.56650776219013   -2.81168961686155   -1.96536062812701
H          -1.93681917222347   -2.79971120501772   -2.71025956364174
H          -1.22797870740066   -0.90605351409635   -2.11009483883441
N           0.65565318545427    1.81026602431186    2.10661938305865
H           1.41673531541957    1.93233694683137    1.35003775646011
H           0.60454383769615    2.58135344704795    2.76248398202671
H          -0.22934493621595    1.68802590895236    1.53697450522869
H           0.78350088011011    0.88376598780839    2.56657876666505
