    26
        -50.44740994  Gyration_radius:  2.70392493148 Dipole_moment: 1.630
 S           1.10459273223546   -0.63406429723105   -0.17769287928809
O           0.78435773412238    0.62562006301831    0.44569721160234
O           2.49003448597966   -0.94935626976521   -0.26346900686293
O           0.34152358180436   -1.76041374779523    0.57127585357256
O           0.44800087132092   -0.68896032006663   -1.56695817752746
H          -0.55824724651362   -0.82430908995525   -1.37944119629333
H           1.01617579926749   -2.13580990677845    1.25197961092318
O          -1.98917255894527   -0.95193231913059   -0.97163354771581
H          -1.97781392964273   -1.67453371547463   -0.33874865132190
O          -2.00163559996791    2.83639875422538   -1.79198371040061
H          -2.81352226793006    3.24913633497092   -2.08960408539682
H          -1.78570582919482    2.14215252812200   -2.44771024113294
O          -1.49963428741784    0.64927731180085   -3.33152523273835
H          -2.00772226940308   -0.01168582089441   -2.84773303188312
H          -0.57576800604109    0.40704843520990   -3.21544968515366
O           2.24093095995054   -2.36830464187613    2.09691422712099
H           2.88757029283811   -2.25327239884860    1.38968453410850
H           2.25222506510803   -1.50349127883726    2.59786155182690
O          -1.84314034772673    1.21855239465907    0.36357401455054
H          -2.06706081616095   -0.09760914510112   -0.41898963718729
H          -0.88529487948644    1.14726554700704    0.53053932540150
H          -1.93378864411666    1.92988313707899   -0.30545116596517
N           2.12905912391910    0.13845648336555    2.96779768067810
H           3.01427582946942    0.62191475987643    3.05646094315765
H           1.55146391367303    0.40829803953911    3.75443620353680
H           1.67829627225649    0.47973915522481    2.12016910280006
