    26
        -50.45870212  Gyration_radius:  2.44958203567 Dipole_moment: 6.213
 S          -1.13507669802200   -0.50454805291301    1.25093450588150
O          -0.64139517299744   -1.81643700500954    0.88371802944812
O          -0.06262421978975    0.46784937008530    1.39180624172049
O          -2.20656728341569   -0.04275285984338    0.38248349346588
O          -1.77555009577467   -0.63045433931798    2.69286409739091
H          -2.61630561159309   -1.03986163453625    2.51652476961988
H          -1.25455430667814   -0.34796547101436   -0.97756753269351
O          -0.57462021663559   -0.65108703510290   -1.60838463921779
H          -0.38211513837351   -1.54545106336761   -1.31599964903292
O           0.06632273881189    2.73480533518812   -0.18992321780547
H           0.00223305057288    2.12020222993419    0.55781881823506
H          -0.84443833677189    2.79966957277134   -0.53650480134806
O           2.30379768478289    0.10777839487239    0.50600689631928
H           2.31283632535518   -0.94078479394867    0.39869257385762
H           1.44878251842810    0.28617059357358    1.00801221329497
O          -2.48784945864502    2.27372870220849   -0.99017292088969
H          -2.52116999711856    1.48601375620477   -0.41786559945351
H          -2.59945611777097    1.95454856189104   -1.88774395571389
O           1.48112723446622    1.07629786711502   -1.60710531847771
H           2.06433208716030    0.54752508856436   -0.47986701830457
H           0.75575398873184    0.44448332860987   -1.80476021293422
H           1.01666521201700    1.86373012439614   -1.19844019792751
N           2.01922798802295   -2.41656770696501    0.34380579131014
H           2.49039500255077   -2.97281987307401    1.04495924102717
H           2.11783855951255   -2.88143177236915   -0.54938317483337
H           1.02241024320702   -2.37264132807103    0.58609153704216
