    26
        -50.44702236  Gyration_radius:  2.50570072309 Dipole_moment: 5.039
 S          -2.51077137155228   -0.24436662588511   -0.04441960419925
O          -1.50303255487095    0.77311346011910    0.18447875533232
O          -3.83291127771076    0.20822791918335   -0.25661742327098
O          -2.02565916539704   -1.13275735889953   -1.21058794539013
O          -2.49637785066627   -1.22150132461548    1.16193042731905
H          -1.55772215747225   -1.48030563900356    1.33894072552216
H          -1.14086946687146   -0.80889195015546   -1.59327590233953
O           0.01373530636954   -1.75975920252893    1.73817967381481
H           0.04989140976384   -2.24657781574945    2.56352266459560
O           1.78176822136408   -1.73408888425279   -0.31351860953156
H           1.15145578456708   -1.84356355844919    0.42824820365114
H           2.07699517493122   -2.61011672728693   -0.56519778826607
O           0.23943147383489   -0.35492868580980   -2.07321976109063
H           0.34517462774065    0.58155070485104   -1.83573374146943
H           0.86087882654023   -0.86078637522589   -1.51400594380591
O           2.33076324556075    0.99350743189746    0.27501003155729
H           1.83303525800492    1.45616665002835   -0.41617570794387
H           2.40417973912392    0.07043503701796    0.00121183221520
O           0.37867187738122    0.72638991071186    2.10150437562715
H          -0.36740111084121    0.95918828099781    1.51853505785193
H           0.20697053308335   -0.78085016566269    1.97391547734181
H           1.18772103049066    0.93263533679188    1.58075756170606
N           0.34340186193018    2.39034119152146   -1.29248213673689
H          -0.44709912470796    2.07017201570806   -0.73153514702736
H          -0.03121753311590    2.69740187655007   -2.18363212004723
H           0.70898723251961    3.21936452814391   -0.83583296540040
