    26
        -50.45887699  Gyration_radius:  2.44007512241 Dipole_moment: 5.966
 S          -1.76730297224368   -0.20048864764971    0.00635086503044
O          -2.24314056420014    1.09127432658905    0.46337571381097
O          -2.76362004084535   -1.17394175349491   -0.31770001127110
O          -0.80369536627421    0.00886829930460   -1.10644227176738
O          -0.92240890498272   -0.81890831809737    1.18523613641510
H          -0.20810257203923   -0.19370835245063    1.42928158005885
H          -0.36564361186707    1.40387424844804   -1.28868401990926
O           1.19386620199389    0.73305379075638    1.67450039440453
H           1.71416495730688    0.26212634039604    2.32756248603002
O          -0.49029930467306    2.86270136955604    1.17913232598651
H           0.14752409109643    2.30356477412088    1.64788778635985
H          -1.28920756401069    2.28722241015219    1.05301230586557
O           1.70701809965476   -2.73788681343698   -0.11603213936019
H           0.72830708543461   -2.80132280883445   -0.20052134946182
H           2.05653734043694   -3.38001541979564   -0.73583685490514
O          -0.93944527781763   -3.08385952480113   -0.50572022115981
H          -1.57808137942417   -2.34302654706447   -0.54958636805703
H          -1.27748789113153   -3.65523727889989    0.18748122807342
O           1.80587101126339   -0.13524141285646   -0.68510825220737
H           2.00607955036353   -1.07467873702602   -0.48273027014455
H           0.86904603167611   -0.18048457668849   -0.97096392646827
H           1.55422007713325    0.45642552712182    0.77751695420867
N           0.11628387188598    2.38456337523006   -1.27971696939596
H           1.11071650775291    2.24302612254560   -1.44053478552483
H          -0.07231795914230    2.74861512567264   -0.26971198873209
H          -0.28888140735703    2.99348447119664   -1.98204837787272
