    26
        -50.47082076  Gyration_radius:  2.42042962851 Dipole_moment: 3.986
 S          -1.92683637668987    0.58600674863989    0.07459186234191
O          -1.27968277890813    1.38447165902200    1.09195664059218
O          -1.29107252154562    0.70376591944093   -1.23253847800327
O          -2.10268048815469   -0.79781168681156    0.48167502125978
O          -3.37890811930653    1.18374627950895   -0.12784183346296
H          -3.75071698268958    1.09814899387636    0.74321626676758
H          -1.11362635349000   -0.98423218361089    1.83779737550403
O          -0.47694535730826   -0.87642213665110    2.57142283660905
H          -0.55603599330063    0.05128464775650    2.81423886033712
O           1.37486936213256    1.80612730355266    0.97706674240311
H           1.50697035922677    1.91089322545500    0.02663562682248
H           0.40611983572805    1.75900399879237    1.09687221825822
O          -0.82404139662034   -1.86186869975562   -1.59135540332742
H          -1.32595067130664   -2.06605123058971   -0.78894626825171
H          -1.07163989970935   -0.92735503016066   -1.74233606533956
O           1.15709738196942    1.36856981879538   -1.81106586272855
H           0.20775718296784    1.19874769660965   -1.58549443226948
H           1.14913931645645    1.87372205107155   -2.62523930438127
O           1.94207968044892   -0.73368279628502    1.48098612740112
H           1.80933134117608   -1.09344642317047    0.05378073053046
H           1.91065484385546    0.25224517358357    1.42696572847282
H           1.11452878541382   -0.96496219666300    1.96480178306356
N           1.68191060661426   -1.20975066638860   -1.03232452820819
H           0.72292448690256   -1.61374026853626   -1.23948312090574
H           2.41556814495110   -1.78927480577846   -1.42415569665909
H           1.69918563118225   -0.25813541170937   -1.44122681682575
