    26
        -50.47391995  Gyration_radius:  2.4400947918 Dipole_moment: 2.193
 S           1.33920334430098    0.88952028140083    1.07144487774187
O           0.80638609677571    1.54285136697252   -0.11413609127523
O           0.62188401578841    1.19511036130223    2.28737735674249
O           1.49526018870805   -0.54220126872265    0.85166413061221
O           2.79565814550083    1.47645188950064    1.26807068573191
H           2.88932380889426    1.38246290127366    2.20897591789481
H          -0.03274975990461   -1.34245128491646    0.70110693571484
O          -0.93799137497041   -1.67656561413350    0.56369586112777
H          -1.47340383505757   -1.19582436446486    1.21117475900312
O          -1.94249011716050    1.61097708859491   -0.23077790725904
H          -0.98834974073807    1.78872540602142   -0.19955612153941
H          -2.15720538443269    1.24568946272546    0.64209992378091
O           1.95814334325433   -2.06504558767728   -1.26632810632428
H           1.97268590220781   -1.56115324334012   -0.42536296974349
H           1.39158455631650   -2.82208973131656   -1.09753512662673
O          -1.85696131321941    0.34863202125578    2.24004071167008
H          -2.28024861959450    0.53842392562435    3.07857294387439
H          -0.92861526361849    0.67315437926233    2.31793531571548
O          -1.84598836535539   -0.59728181457562   -1.71069472664103
H          -0.45514463770931   -0.26477545959250   -2.17560562192561
H          -1.63824778948660   -1.17729112615517   -0.94332553693546
H          -2.09660421926490    0.26010335601363   -1.29203817108690
N           0.59772186166960    0.01174785962535   -2.26496239231674
H           1.18238464771956   -0.83776163293596   -2.07475392237818
H           0.77275383100510    0.69143729692428   -1.48280613520847
H           0.81101069837077    0.42715352133215   -3.16427658034805
