    26
        -50.45051058  Gyration_radius:  2.4487612712 Dipole_moment: 6.562
 S          -0.17400188726248   -1.26293965381262   -1.74824871455847
O          -0.27343769191077   -1.75497605234340   -0.38893657516560
O          -0.02525902503321   -2.23646272561629   -2.76168954707827
O          -1.37494864687322   -0.33843533569705   -2.01435136385813
O           1.03875140993540   -0.28253234290286   -1.79369694128057
H           0.69782114671142    0.65494760079733   -1.65389091455975
H          -1.90294186756187   -0.12806955576469   -1.14185911903293
O          -0.59519376358145    1.77790859911564    1.20109972663995
H          -0.49639698081981    2.39800871603134    1.92390947236244
O          -2.05532610149516   -1.86926119341494    1.62855241356817
H          -1.46996791305300   -1.62958014934850    2.35201202566556
H          -1.47146769728994   -2.15693555863278    0.90734848990280
O           0.03706153398942    2.04298390568448   -1.38483593162849
H          -0.17522446716847    2.07281459626199   -0.42601976616815
H          -0.80106411050020    1.98783576743487   -1.85321736543367
O          -2.57230423444600    0.26351625019154    0.10779535138142
H          -1.99816765790972    0.90946944029095    0.55961338567652
H          -2.57463159042160   -0.53491407767332    0.68644884594960
O           0.79261506964061   -0.34352452421681    1.61782868291986
H          -0.03476416810330    0.96862496648127    1.43132690854014
H           0.43866371552592   -0.94234753166083    0.93051801143641
H           1.71054568414529   -0.14988757562818    1.31619665830341
N           3.13498114896122    0.12482947934375    0.32828767800154
H           3.89458842678690   -0.52500211703909    0.48779769356437
H           3.53153064147899    1.05366824537287    0.25888870939619
H           2.71853901622464   -0.09973918334222   -0.57087781449122
