    26
        -50.45683222  Gyration_radius:  2.43361921397 Dipole_moment: 3.390
 S           1.52025692075968    0.79705536022883    0.66557386383257
O           0.35496378326472    1.29760093906942   -0.02903540721009
O           2.77448887338921    1.29065527810771    0.22794586339826
O           1.32393768913256    1.10662431046899    2.17343135043983
O           1.54241147093381   -0.73711443347241    0.59168962870846
H           0.64007821845507   -1.17741315666134    0.81724303299325
H           0.38168943146214    0.89345498046695    2.41134651316803
O          -2.11492554441661   -1.03329391762588   -0.99429898740265
H          -2.62209908794070   -1.63401293692408   -1.54131669446400
O          -1.18053880817883    0.52232802066788    2.68580497608567
H          -1.51244216863251    0.98501867960464    3.45722890398499
H          -1.69226081947312    0.87572236561097    1.89206668322283
O          -0.70428299416946   -1.73042729498909    1.16774806700176
H          -1.27073260704701   -1.55313432857878    0.38244225097338
H          -1.01662610390960   -1.14855933849701    1.87583970693729
O          -2.27955846069049    1.31485391275732    0.48726581189745
H          -2.50130718485089    0.53097961060626   -0.04184856786738
H          -1.40802299716536    1.59008605050727    0.15501921748624
O          -0.21739481454043    0.09842903744615   -2.37560002340886
H          -0.05453185011120    0.76035141780514   -1.68459444003979
H           0.67184909341561   -0.29745811110568   -2.50441675107555
H          -1.40001278321996   -0.65231250815550   -1.58271354178306
N           2.42998145339684   -0.50349285178531   -2.16103409268807
H           2.64222312795066    0.22792217434147   -1.48789989391207
H           3.11303859535716   -0.44095275543993   -2.90715732160460
H           2.57981755673039   -1.38291051461261   -1.68073015848206
