    26
        -50.45874427  Gyration_radius:  2.41832663008 Dipole_moment: 6.922
 S          -1.32823803751567    0.45601988574885    1.23106525037673
O          -0.47915590686737    1.06505343118768    2.23696924455227
O          -2.73238298509203    0.47550325838972    1.46146998783199
O          -0.95910174778542    1.03630629855279   -0.10274494508581
O          -0.90778889312021   -1.06047449552261    1.13409460269262
H           0.06607823860371   -1.12339786311125    1.05759137930437
H           0.30942003275124    1.84537346837161   -0.05526319729630
O           1.70743448576043   -1.27469260820776    0.58564489869147
H           1.85037398973745   -2.21731099639399    0.48470780935475
O           2.10083904504935    1.01866619451349    2.05520893264971
H           2.23755424353457    0.10853351326926    1.75108156492144
H           1.15552124149673    1.04282077727490    2.35586540711916
O          -0.87259745019155   -2.32626153471753   -2.11565482925543
H          -1.59596301523966   -1.86398811638101   -1.63506087441782
H          -1.24574242321898   -2.57732224374965   -2.96171811111087
O          -2.76095852264166   -0.74157799311044   -1.02141441046339
H          -3.23151446009656   -0.89468644032428   -0.19595381236008
H          -2.22244145536408    0.03934892913017   -0.82056763499546
O           0.79331702107658   -0.29207629105644   -1.64315166328104
H           0.07097849584183    0.19832899154997   -1.20268652010157
H           1.49002639968200   -0.92554473364051   -0.32649321634489
H           0.33635707227113   -1.08904938511559   -1.98875556811602
N           1.32578494406642    2.21909750758944   -0.08707907610383
H           1.79314072152776    1.79390441683942    0.80688726313427
H           1.33815010531675    3.23314118222638   -0.07176266002524
H           1.76090886042307    1.85428483670468   -0.93227982167725
