    26
        -50.47082113  Gyration_radius:  2.41999216306 Dipole_moment: 3.992
 S           0.62505117478558    1.69538542908502    0.88839161646250
O           1.09573489644495    0.64625012022257    1.76528642811238
O           1.06447829415158    1.52458715757390   -0.49147848469216
O          -0.80968639032429    1.90394423554849    0.99134152371098
O           1.30972991602834    3.04032912572522    1.36679227173797
H           1.00364047355923    3.10906851500871    2.26446333186793
H          -1.39147194468298    0.55686369226261    1.82857896706743
O          -1.50816064618124   -0.29463934946369    2.29374960695631
H          -0.67427128959039   -0.42427216690145    2.75606168793705
O           1.41845436642110   -1.85133615762721    0.81880273876197
H           1.76730273236152   -1.67285299702609   -0.06336867640273
H           1.38275298813818   -0.98032909582608    1.26046555172885
O           1.75213154118885   -0.66003613912070   -1.72628188437533
H           1.56941961001143    0.17462995590897   -1.22528485864954
H           2.45892252466703   -0.45183526690066   -2.33884156149617
O          -1.32981687534604    1.54907519115789   -1.58615070191234
H          -0.37795008744264    1.70827755003293   -1.42728930206169
H          -1.70668648855241    1.77340265147232   -0.72235718590105
O          -1.18613127493159   -2.20698574956382    0.47712502467183
H          -1.50183452285908   -1.56538601875295    1.15616934276804
H          -1.14513166867919   -1.55908815436172   -0.85066557604005
H          -0.22121517061693   -2.29265984729821    0.67066251949839
N          -0.96076202946962   -1.06389183829117   -1.81508550957464
H           0.06373563816507   -1.07244060834610   -1.96741989900493
H          -1.25234587185439   -0.04515472888986   -1.75706255687724
H          -1.44588989531849   -1.54090548564010   -2.56660442432956
