    26
        -50.45887700  Gyration_radius:  2.44051410921 Dipole_moment: 5.981
 S          -0.42161816182749   -1.44850831961819   -0.94321265873605
O           0.38137758426537   -1.30376377987159   -2.14242127734050
O          -1.22760007298277   -2.62595282310930   -0.84769027789706
O           0.45364158131768   -1.26854042907690    0.24524129070607
O          -1.42454165268057   -0.23192889244392   -0.91616530351833
H          -0.91496107927413    0.60411932908982   -0.95949576305296
H           1.79417386186113   -0.73482807607343   -0.05392499267410
O          -0.05351412273903    2.05224359951378   -0.74359765830569
H          -0.71115999913651    2.74138573456705   -0.63636365573315
O          -2.50970535386349   -1.66553144071251    1.26098847354587
H          -3.38906042287429   -1.64152140485474    0.87701697239329
H          -1.94467661485057   -2.05194810893549    0.56105884930410
O           1.77303914605378    0.86428756222863   -2.43802255820011
H           1.23502417976224    0.03732974174434   -2.54633466656624
H           1.14959691603045    1.52451189939706   -2.09962817180560
O          -2.02784234197987    0.72806747666471    2.40811611273398
H          -2.20823587701344    0.51946729753467    3.32600969501725
H          -2.17999402500953   -0.11093458488047    1.91622711170778
O           0.48545369870482    1.02333081776100    1.56889912788711
H           0.21413904559602    1.77402598929777    0.18477545473010
H          -0.38693246713937    1.10463568287447    2.01146849468122
H           0.45884669937814    0.10459417926752    1.22717642325151
N           2.69130622438104   -0.14241852762924   -0.24987604212265
H           2.46548487193132    0.35333035148952   -1.19383464766707
H           3.50938793602623   -0.73717593709976   -0.32218671222151
H           2.78837046605674    0.53172265287364    0.50577636988207
