    26
        -50.45683220  Gyration_radius:  2.43356745244 Dipole_moment: 3.389
 S          -0.15730977986362   -0.96813346306008   -1.55764503996198
O          -0.57561212025919    0.35812360724594   -1.16151901104021
O          -1.10707997457729   -1.74109816383018   -2.27090059602099
O           1.13742251717046   -0.80895559360703   -2.39822227114783
O           0.28861071759391   -1.75761002334301   -0.31767986064888
H           0.92168997345144   -1.23431285989975    0.30236538880175
H           1.71663570455022   -0.13716415599071   -1.94762297834745
O           0.13246967239552    1.39199479475186    2.13846542720011
H           0.00964728329230    1.58058569854292    3.06939136070558
O           2.57674616340112    0.98041233475081   -1.13187079327197
H           1.91405948186417    1.68390203697790   -0.84438962210364
H           3.20801956154076    1.41409148538955   -1.70860858082541
O           1.84244896487621   -0.40392593784096    1.13780785752959
H           1.26406517812169    0.25605914945645    1.58372821258907
H           2.37193666247787    0.08069599261451    0.48801597984723
O           0.70434643597253    2.56259594340811   -0.31874726964100
H           0.04257349833924    1.99389494497154   -0.74791492895557
H           0.57030085149369    2.41162429754217    0.63142571155066
O          -2.07233698675290    0.49625351655089    1.07726669926979
H          -2.33220332867256   -0.45059072265083    1.08174133325592
H          -0.74309705399291    1.03896097179724    1.80506616817789
H          -1.73424822836859    0.61698382190278    0.17547434490231
N          -2.51041856896848   -2.09578364245622    0.36534315002638
H          -3.40740048735914   -2.56746190367177    0.36928635483717
H          -1.83264728085246   -2.72169529003640    0.78404613559500
H          -2.22861886690596   -1.97944683043444   -0.60430317237570
