    26
        -50.47068164  Gyration_radius:  2.43159291022 Dipole_moment: 3.183
 S          -0.60139211955987    0.42249102050564   -0.53943289141366
O          -0.34862427217602    1.75191179029833   -1.04761108911126
O          -1.25911478501717   -0.45290554272178   -1.64253721924279
O           0.65250842784734   -0.23400187567754   -0.14760023939900
O          -1.56508103696666    0.40588819157464    0.56162488818235
O          -1.83467066059853   -2.26158716105286    0.62585560998695
H          -1.89498719925843   -1.28987013904432    0.57286741362672
H          -1.86016532573696   -2.56277280125374   -0.28456260899984
O           1.29083407958107    1.83426125801849    1.37789886168449
H           1.25522788467910    1.06480634308415    0.77474883903653
H           0.88127822239650    2.54677418697467    0.87958607855560
O           0.54893715815343   -2.00240875801155    1.86092479680005
H           0.83518516255391   -1.50616453827368    1.06863409238666
H          -0.30170384083512   -2.39424644451007    1.57787701133974
O           1.93076809507458    1.16696461996037   -2.24134999078366
H           2.23298432760587    0.52215924207998   -1.59427782680520
H           1.14832119906348    1.58718411786591   -1.82530084426806
O           0.22869533208123   -0.17204067897184   -3.73732784629536
H          -0.70308299402373   -0.40409004488166   -2.47463041028685
H          -0.18162288416596    0.46720943439237   -4.32392829332336
H           0.99757631528611    0.29297357225922   -3.31788459967550
N          -0.29605711492712    0.25290513456131    2.82730870874198
H          -0.71368224789773    0.36115173112883    3.74449210843682
H           0.11398221775008   -0.73017134157865    2.64945922641560
H          -0.99152428226309    0.36797720881075    2.03617467878932
H           0.43541034137195    0.96560145445662    2.61899156562751
