    26
        -50.46040319  Gyration_radius:  2.68247029082 Dipole_moment: 2.828
 S           0.83446465605921   -2.05129771433237   -1.76224906791234
O           0.65607840146823   -0.85873695014522   -2.58544875314789
O           0.78646223020678   -3.28470290152555   -2.47580772234019
O           2.32133126498800   -1.93962863039611   -1.15366165058464
O          -0.02293938785851   -1.97410814127207   -0.57527443515303
H           0.85258934623673   -1.13579204924224    0.50995104196751
H           2.80246560130368   -2.40668058026214   -1.82731797043127
O           1.35105317016150   -0.59048438646034    1.16393099549639
H           2.24768735081444   -0.92848986470624    1.12809499613184
O          -2.19404107959698   -0.61584387110670   -0.15915946538364
H          -1.41420787020867   -1.20737270672635   -0.31443428008135
H          -2.97270485279781   -1.14837573133862   -0.32531029419103
O          -1.13357722409337    0.04503115900364    2.34783779513106
H          -1.65205381473626   -0.20747419844878    1.56769160165685
H          -0.23801491147457   -0.27798363848435    2.17453481533655
O          -0.80455989202985    2.67472184249378    2.14988463492000
H          -0.63689648123017    3.04918194175604    3.01509903216071
H          -1.03281810776770    1.72478004217528    2.29866984268387
O           1.07849270604896    1.99526724462150    0.37896465686256
H           0.13956521291715    1.57670743987082   -0.75147591898745
H           0.46854333007355    2.39157238149456    1.03984207570871
H           1.31172523252479    1.11270380732774    0.73217519411060
N          -0.53905334397763    1.14584436692467   -1.47455169822910
H          -1.34275361900494    0.72457884317613   -0.98336854160101
H          -0.02275249871793    0.34605577356443   -1.97158903230137
H          -0.84408539930580    1.84052651203187   -2.14702787180457
