    26
        -50.46997625  Gyration_radius:  2.47178178825 Dipole_moment: 4.051
 S           0.06206944305319   -0.33351881713888   -1.34699865032513
O          -0.84935658537916    0.07916949613721   -2.52168251486798
O           1.16980751336908   -1.08026626800453   -1.88828044389671
O           0.52378937605559    0.90948297156532   -0.68760686906994
O          -0.72505079576547   -1.11591607046419   -0.39304242122967
O           0.17498132581872   -0.95823283476860    2.09113445352726
H          -0.28425442242756   -0.14550089656915    2.34009562374449
H          -0.20680498966112   -1.19401016082654    1.21352598462286
O           3.22750897281402   -2.01884118595108   -0.60305452283992
H           3.00347768005897   -2.92689345556870   -0.39045317707872
H           2.53412006518006   -1.71787824265278   -1.24049688624049
O          -0.77625940917849    1.62041937670255    1.49400212376000
H          -0.96954038393901    2.55751954085007    1.44250814125789
H          -0.32457094085923    1.39485976514726    0.64481266110655
O          -2.88063136977192    0.11181920475113    0.55179451871117
H          -2.36487167759833    0.65750912423337    1.16789999592035
H          -2.22550602816403   -0.52502540509855    0.19774783223635
O          -2.69354897242500    1.62444970449522   -1.56245402929998
H          -2.89472460995767    1.10019732514987   -0.73662461843657
H          -1.51215879854319    0.73209766219068   -2.16224910919298
H          -3.45861372958035    1.53401907682022   -2.13349350462888
N           2.32810763858198   -0.04874742152939    0.92312343489525
H           1.59403467926667   -0.46224457962561    1.57879346322072
H           2.97007854592797    0.57638986740621    1.39800078640806
H           2.83389941317254   -0.83078378145392    0.42735492560046
H           1.74401805994749    0.45992601420130    0.19564279209570
