    26
        -50.44116112  Gyration_radius:  2.67410927086 Dipole_moment: 1.487
 S           1.86683897081995   -0.94439403194987    1.87742230978899
O           2.11867691068389   -1.88491337670787    0.82713882579382
O           2.01133099085836    0.43660838948448    1.53956793625205
O           0.52491650489409   -1.21479645598775    2.53748700196606
O           2.87172406390397   -1.26660233077339    3.04352716891616
H           2.93107706496926   -2.21860868373986    3.06487321102364
H          -0.24980825560826   -0.65815962105876    2.05597237832646
O          -1.27957558578944    0.02669664465834    1.40385518997907
H          -2.07195354055072   -0.07128888553677    1.93644403237967
O          -0.86669479961087    2.29708047371776   -0.32138288231143
H           0.02416585064730    2.09502897621916   -0.64496741465216
H          -0.99313652025205    1.71124428781296    0.43546870442163
O           0.83988389567779   -1.27313537459780   -1.51625536094494
H           1.09535933024517   -0.33819089553607   -1.54199630345720
H           1.34686048433219   -1.65818261735245   -0.78447422366397
O           1.68390678023940    1.33088934604789   -0.94484996075254
H           1.82864822160063    1.05226038214774   -0.01708671532336
H           2.46059280079458    1.82953713591241   -1.20314966787847
O          -1.69228325347510   -1.22404819336945   -0.71246501611912
H          -2.09089065842591   -0.53239161469585   -1.31064809914804
H          -0.78616683458262   -1.37272307388016   -1.07505316658879
H          -1.46435338949491   -0.52216917754594    0.50467506536318
N          -2.50885455138849    0.84978584619424   -2.18013128002060
H          -2.01136895211971    1.54346784027587   -1.61555954499343
H          -3.47630889009566    1.13752986918923   -2.24735620931103
H          -2.11258661827094    0.86947514106981   -3.11105599909525
