    26
        -50.45945639  Gyration_radius:  2.4065426949 Dipole_moment: 5.304
 S          -0.32828488325703    1.32149348494759    1.18154234749143
O          -1.67359871708266    1.82900975989953    1.25537259267992
O          -0.21007094756032   -0.06165199141581    1.62784553741014
O           0.30107793460526    1.49940632396588   -0.12161661382086
O           0.53300703265889    2.19578716802303    2.18407981530354
H          -0.15385214878575    2.46394474108912    2.78331101498858
H          -0.24330766227595    0.71184462308591   -1.36999370299047
O          -0.58366661402840    0.15791437585430   -2.12485083622989
H          -0.17774333813263    0.50187329992584   -2.92181860755807
O          -1.91668314696098   -1.86137106494704    0.65249693355062
H          -1.36439779355135   -1.31230204469025    1.24628432693267
H          -2.52265707590034   -1.20325769447773    0.22551026619903
O          -2.95031075025286    0.25908756553291   -0.49501178263611
H          -2.41130564540724    0.36536706863095   -1.28717060613789
H          -2.62581732498592    0.91698824160681    0.15112236704893
O           1.64419598334763   -1.56836211837143    0.50600798359831
H           2.27087694769471   -0.89152034323152    0.13771353865264
H           1.04434317490226   -1.05117317154323    1.08895924969579
O          -0.16259287094905   -2.19244461421065   -1.07549814054099
H           0.69801967985906   -2.00432571984319   -0.44791918820637
H          -0.97145512016544   -2.18469558013192   -0.35623814662395
H          -0.30730905488627   -1.35678222045408   -1.60680659333120
N           2.98597331291742    0.59545242343467   -0.28346331026184
H           2.10863057822344    1.11616152083278   -0.24040980956640
H           3.43568212151642    0.80644540831633   -1.16523876915289
H           3.58124630845876    0.94711054817458    0.45579013351106
