    26
        -50.46836911  Gyration_radius:  2.48090276112 Dipole_moment: 2.819
 S           1.25877552018637   -1.86621701203015    0.00497965972535
O           0.31074147478845   -1.96393289535455   -1.08121054956615
O           1.77585478072250   -0.50433435461392    0.14643993607109
O           0.76750144098144   -2.42243726246741    1.24855171299039
O           2.52662282638355   -2.73629165903956   -0.39456935319988
H           2.20330138313826   -3.61688389780154   -0.23816273317831
H          -0.54616697502227   -1.57633852963422    1.59172970472365
O          -1.30665343319226   -0.98702843141475    1.82818071686354
H          -1.91378620394900   -1.52786768757612    2.33605794911030
O          -0.38040544542623    2.69444265395358    0.39465757670655
H          -0.36306477449028    3.57870662552445    0.76109979400197
H           0.00113852839235    2.08818174365099    1.09776905966807
O          -1.17043796505753   -0.20066942185692   -2.40631047037952
H          -0.75474868154429   -1.02030988799574   -2.07239082819633
H          -0.01978447730903    0.69486938083785   -2.05082195630575
O           0.60425201700066    0.97088979417871    2.06884809859896
H          -0.13731285920615    0.37561226505891    2.26386256349760
H           1.19180283657091    0.44094396390976    1.49648588951746
O          -2.31359674330960    0.66358444052061   -0.15680690189189
H          -1.83554541327393    1.48173042897357    0.03489400125408
H          -1.79906095481844    0.06515320059336   -1.69561370551063
H          -2.03120418749482    0.02806638286433    0.52289254149093
N           0.80158868488525    1.23135334523130   -1.56771917875273
H           1.27803048425193    0.52305326194290   -0.94152360356392
H           0.39810623540175    1.96470383050763   -0.95356375931789
H           1.45405192137940    1.62101972203925   -2.23775614436576
