    26
        -50.44477121  Gyration_radius:  2.61768482506 Dipole_moment: 8.911
 S          -1.73430910487603   -1.69847065403593    1.74226096124392
O          -2.31217393548327   -0.77913122820906    0.79678197617296
O          -2.55498360984953   -2.16008063351670    2.79925246908770
O          -1.11526284897341   -2.89242428407916    0.99598421932738
O          -0.45495988176535   -0.98880251168001    2.33368580326473
H          -0.43870631803609   -0.03772954556629    2.05455136046756
H          -0.55615099211014   -2.48802084886660    0.26359169673811
O          -0.18005625097592    1.51397595536063    1.57634132940704
H          -0.48680401507463    2.12865560806710    2.24440002292126
O          -0.34172106153834    0.42926991675891   -2.35503698300751
H          -0.51533508072080    0.33457395871077   -3.29187839291036
H           0.60387455015225    0.72876201737742   -2.25512243505705
O           0.34220976118988   -1.66710085672677   -0.71390414426419
H           0.98409801861055   -1.13798195269129   -0.20334095411073
H          -0.11921900352931   -1.03212075323461   -1.29008663727416
O           1.95226726962488   -0.04809295026923    0.83357835089617
H           1.30984967520655    0.64032322942518    1.07683408276725
H           2.02677244854184   -0.61463874581798    1.60553177463918
O          -1.85111023537819    1.56773971702382   -0.36838361012945
H          -1.38242784903369    1.26735234486383   -1.16659282742663
H          -2.28625879439777    0.76586438840301   -0.02433383032643
H          -0.81156257093131    1.61385784000263    0.78910352713145
N           2.22284449843688    1.09527358147344   -1.94556701483822
H           2.38375691999178    0.70214944354076   -1.02290319624447
H           2.42569115158181    2.08585311384973   -1.89646553572699
H           2.88967726934648    0.67094385985097   -2.57828199275087
