    26
        -50.45061313  Gyration_radius:  2.44935974827 Dipole_moment: 4.854
 S           1.01494550694650    1.19438510889307   -1.35179303221775
O          -0.36937193849971    1.40613339136650   -0.97025621978073
O           1.35960071024301    1.61780874054845   -2.65928562017799
O           1.91895484093934    1.89469487962448   -0.31188598176038
O           1.34092406387998   -0.29317348710494   -1.14782971795932
H           0.47480072486175   -0.88401825752366   -0.90424394139700
H           1.62500247085735    1.52158277460550    0.56009728580775
O          -0.65896656036015   -1.63464125399584   -0.57527189596716
H          -1.31813156516986   -1.30947140086011   -1.22054981945479
O          -2.78535994291065    1.34201987824779    0.31127497094032
H          -1.94633021244928    1.63511653874132   -0.07624203411583
H          -3.25797280395259    0.90727266597873   -0.40403151959321
O          -2.05092777138637   -0.11907527193199   -2.33721533458157
H          -1.46930595577929    0.55926040743598   -1.93458931663790
H          -1.85785892363461   -0.11661490524686   -3.27561873617252
O           1.21145981796783    0.72118673459554    1.90062944708079
H           1.65738199132462    1.07006195396920    2.67487667933046
H           1.57286728533210   -0.20984533872066    1.74028990446070
O          -1.33364048829020   -0.47780185559877    1.65863123647379
H          -0.55236842072287    0.05437781893660    1.86523997323041
H          -2.00027984523662    0.16128297403839    1.32736668297207
H          -0.95157092206067   -1.27528494981056    0.31510706670082
N           2.04912260697823   -1.70679964812808    1.33135928366829
H           1.23882174266580   -2.31343131658028    1.37507545012675
H           2.83001563446843   -2.18752526443415    1.75944517629476
H           2.25818794396277   -1.55750091702951    0.34942001272066
