    26
        -50.46934071  Gyration_radius:  2.48052074451 Dipole_moment: 4.124
 S           0.25319579536807    0.38585564972327    0.76119058283579
O          -0.58769948321114    1.23206421282058    1.75675975520822
O          -0.35057692524318    0.58533555112028   -0.57004910775364
O           1.62570746031936    0.85769305311334    0.77990682074893
O           0.12574237648960   -1.00150072070574    1.16381827766852
O          -0.97391995739379   -3.19619572692785   -0.03446687628818
H          -0.48366016966254   -2.70633568297226    0.64723291268910
H          -1.87492873987300   -2.85799253707966    0.05400971498591
O          -2.56484797651365   -1.04291879657877    0.79348331813354
H          -3.03248130464607   -0.28242959154275    1.14005559606631
H          -1.63100176931130   -0.90077848230117    1.01736033031747
O          -0.39692975022401    3.17938963112718   -1.15042163925154
H          -0.36464960538087    2.20673036933620   -1.03121559036305
H          -1.32176818098737    3.40442665341620   -1.26539346557426
O           2.59632342651193   -1.29178730660340   -0.41950107534450
H           2.36666333212658   -0.42650450033103   -0.01130801406005
H           2.65279131359064   -1.90304810515491    0.31902103874656
O           0.73070934636044    3.37147175285828    1.28594370711564
H           1.47806451370042    2.77131493968368    1.14469538645020
H           0.38374784496725    3.56332777826413    0.38940624858405
H          -0.18733647398374    2.15601778720832    1.71630694702779
N           0.30838799333688   -1.63842354966095   -1.73872174559904
H           0.27294798546043   -1.74745841579755   -2.74624967486895
H          -0.07709031395964   -0.70260063596864   -1.41809195566163
H          -0.24328755303293   -2.38168171210279   -1.21698438773586
H           1.29589683130376   -1.63397162366344   -1.36678708607361
