    26
        -50.44116118  Gyration_radius:  2.67461991869 Dipole_moment: 1.491
 S           0.78497522275658   -2.41637672039844    1.20520467474125
O           1.94042560994289   -1.63005064302474    1.51781896925619
O          -0.47019728098430   -1.90770926789040    1.66115665840598
O           0.74093343631302   -2.75058714257100   -0.27687292182782
O           0.99735939788952   -3.83481654728830    1.85026293602204
H           1.92558610380545   -4.02362482376360    1.73586948559019
H           0.19639716073484   -2.00547365797716   -0.81428003532394
O          -0.47247319117402   -1.01095902462073   -1.53629600993824
H          -0.58677019448101   -1.33397303872169   -2.43278802615982
O           1.64803844460523    1.02805570954932    0.92555461820681
H           0.77767395580829    1.13890618465239    1.33816987130742
H           1.94176785301790    0.13936930573634    1.17999458094137
O          -0.88688421198212    0.69048718987002    2.05699014419280
H          -0.78248161100553   -0.27623921399452    1.93984851342786
H          -1.21835119602014    0.82218648700644    2.94660739493186
O          -2.28006077688532    0.89947249131802   -0.36011264385974
H          -1.90378666228414    0.94977782754406    0.53155886011958
H          -1.87860887665350    0.11435960933515   -0.75319400416738
O           1.11215286393872    0.90864341928650   -1.67460547956167
H           0.21625245875501   -0.19623226791156   -1.60697159584557
H           0.50829962358053    1.69213241646093   -1.80299422435926
H           1.44620473992202    1.00177148410362   -0.75036186072542
N          -0.71517545812380    2.85150342768772   -1.77007638559983
H          -0.49757394292449    3.64329924955911   -1.17868443907353
H          -1.43731035487519    2.30035186321590   -1.29870415969768
H          -1.10639310367114    3.20572567279339   -2.63309493098988
