    26
        -50.44116119  Gyration_radius:  2.67427746362 Dipole_moment: 1.492
 S          -2.51093059347999    0.29994345298315   -1.22819180943809
O          -2.95217184231123   -0.03372059711342    0.09288022006159
O          -1.65518175201182    1.43878614941886   -1.34185019433579
O          -1.91355589206073   -0.91260731654933   -1.92299868980601
O          -3.79513651610282    0.56916619518780   -2.09511666704872
H          -4.43431261130150   -0.07464522628504   -1.79969074683638
H          -0.86162479386054   -0.96692486112120   -1.74561145829112
O           0.50743635260203   -1.07614914993114   -1.48023965316950
H           0.85517326617594   -1.77076467885577   -2.04388907535422
O          -0.09762946151677    2.24880013516404    0.65765163762518
H          -0.26853509809326    3.17563189232279    0.83197260379634
H          -0.66089667757385    2.00105101434005   -0.10430609032493
O           2.14977222491355    1.10014643282109   -0.54943734750445
H           1.48149537095720    1.61485504594437   -0.07230639667759
H           1.64433023996965    0.47520421361822   -1.08427848565651
O          -0.92908503970982   -0.09427485308803    1.93835774774501
H          -1.75882193929744   -0.14025700941120    1.43814910016293
H          -0.52555699368905    0.75141938307694    1.68931185174662
O           0.68022933210303   -1.91429449700834    0.86112107498455
H           0.04629035107442   -1.34498900401072    1.35955601352635
H           0.57667092367402   -1.45104986043258   -0.48120164908823
H           1.58124665590967   -1.59736341820124    1.14909727619018
N           3.00821744790424   -0.75787105187264    1.46459186499848
H           3.02146766331789   -0.32570759431392    2.37952641776643
H           2.90583500022587   -0.01299192810906    0.77020988600176
H           3.90527436219552   -1.20139287859132    1.31669256897128
