    26
        -50.44116109  Gyration_radius:  2.67465256412 Dipole_moment: 1.488
 S           2.51592830324890    1.07060266620691   -0.65669967589760
O           2.90797873228152   -0.28820426750253   -0.43033279678621
O           1.50601226229525    1.28244931764147   -1.64530257301140
O           2.16249039168478    1.75862788929132    0.65166754404162
O           3.80231817376093    1.85968031540792   -1.09935813404061
H           4.51025811976679    1.49665437679664   -0.57267205973040
H           1.12182586128143    1.64885908961853    0.86471085164278
O          -0.22986070788646    1.47010934206208    1.17927185281197
H          -0.42625916472628    2.02971769994001    1.93384685213678
O           0.79312725645847   -1.99755614353940   -0.10201441369135
H           1.65335389636279   -1.55515481223373   -0.17296765251978
H           0.28254446351532   -1.69117443894398   -0.86722145678033
O          -0.29588942050308   -0.57956609753576   -2.25206951279025
H           0.35107779983883    0.13432708971166   -2.07618576822999
H          -0.28031308024592   -0.73356085975546   -3.19794141070671
O          -2.24994277369642    0.72951831159786   -0.73666260504593
H          -1.70438557851064    0.22869170383379   -1.36167208393113
H          -1.61780305757438    1.20692086054270   -0.18479947588706
O          -0.43685292159028   -0.88386949873964    1.97384316060070
H          -0.31098055971147    0.46507654875419    1.53445823823755
H          -1.39394558193132   -1.10010653081130    1.79443064831656
H           0.06502929581363   -1.40193111313496    1.29989190726496
N          -2.95271358317849   -1.28958979515529    1.18075501376455
H          -2.91728059006016   -0.57706896436876    0.44692207955822
H          -3.75736177211993   -1.09816098414532    1.76315083491767
H          -3.09835576462206   -2.18529171545054    0.73295063564471
