    26
        -50.45021953  Gyration_radius:  2.45423909355 Dipole_moment: 4.665
 S           1.42982377378961   -0.52938343080494   -1.87433260722360
O           1.63296791301263   -0.02275110299264   -0.52735301089622
O           2.52343575507671   -1.23320625598526   -2.43321033547085
O           0.14619201777994   -1.41037843871872   -1.85108671693312
O           0.99901808550230    0.62209671554781   -2.78205146564314
H           0.16282454808949    1.01259543062330   -2.34080475910987
H          -0.00221121597979   -1.85185075283572   -0.96552884417715
O          -0.40318274484824   -2.47491969059369    0.43191911448790
H          -0.17084738397094   -3.40151797889018    0.50780477672198
O          -0.96565684394314    1.53215933179229   -1.47049143400429
H          -0.46426123150102    2.02938533879711   -0.79551369838894
H          -1.42868714535697    0.81695363655574   -0.98953029785367
O          -2.25484650251813   -0.45888975407800   -0.08918136855419
H          -1.67965063263031   -1.19762129600673    0.16653954096527
H          -2.89110590092203   -0.81570643644527   -0.71180644960188
O           0.91313703083447    2.40481168322921    0.27048122369087
H           1.26981060119279    1.51657599118951    0.05089176900713
H           1.57456517125122    3.03810140408526   -0.01222064922815
O           1.06840518956646   -1.05276260987224    1.93169089694985
H           0.42840994068968   -0.34441137415836    2.21120766039457
H           0.18277349315329   -1.96911693827858    1.10360026855365
H           1.55289642201204   -0.66293973835187    1.18710929530246
N          -0.73811334519459    0.90261918652400    2.28094666992405
H          -1.08775350744830    1.22968755071409    3.17185967356219
H          -1.53181010151350    0.64488501527817    1.70568853036630
H          -0.26613340612178    1.67558453367833    1.82337222716332
