    26
        -50.46536843  Gyration_radius:  2.39747393228 Dipole_moment: 4.166
 S           1.14042135433428    0.60575698190830    0.45821335447354
O          -0.05583049391216    1.28775527419841   -0.03123892300942
O           1.21911139893159    0.57634415338308    1.89516351318424
O           0.99663272989069   -0.89789200674054   -0.03953534299268
O           2.33756185997960    1.08138588561124   -0.22269316140223
H           2.15972214715769    0.57928148770555   -1.57980209542821
H           0.56935400242315   -1.36785829067845    0.74634228630859
O          -0.32535129812564   -1.84901681208055    1.91389474810500
H           0.03212717869600   -1.39394735287542    2.68295899578050
O          -1.44120810715211   -1.39755295618831   -1.46827633613884
H          -0.59113653532735   -1.49919151370218   -1.01913335613826
H          -2.06204219048747   -1.13652621395928   -0.77694730412390
O          -0.58547373464532    0.87475919664528   -2.56997253044903
H          -1.08217209519286    0.04186131894364   -2.40360167146647
H          -0.49948329873197    1.26779991494604   -1.67236228410303
O          -1.01430543277984    0.94176524937632    3.31025658037472
H          -0.94963240013015    1.74099848060088    3.83364018776389
H          -0.16637774797620    0.87030731652411    2.82425432458001
O          -2.08044385078371   -0.06711648250937    1.00421318182313
H          -2.20477996063623    0.33746005916184    1.87512840113121
H          -1.40615333269884    0.50735744148607    0.57885332230013
H          -1.13306184359464   -1.34018846703946    1.65832986106975
N           1.88162935074341    0.15008045633458   -2.54721217807097
H           2.48501562973088    0.49436142262178   -3.28729572235091
H           0.83413276169073    0.45330188579006   -2.69495857239396
H           1.94174390870084   -0.86128642970156   -2.46821926884815
