    26
        -50.46536855  Gyration_radius:  2.39761407002 Dipole_moment: 4.174
 S           1.11888307549103    0.29016019595176    0.73460056686972
O           0.54526881060404    1.12557090348512   -0.31826054808821
O           0.78356967145851    0.74825153068066    2.05734188613462
O           0.44924242870787   -1.13972762946109    0.54390005684123
O           2.53535131851418    0.04110503490530    0.50113475301098
H           2.52542655188953   -0.81748704807193   -0.67775294891481
H          -0.33956048132228   -1.11733893627879    1.17514352531882
O          -1.63318635499683   -0.80542699935839    1.96509149566939
H          -1.33020554289920   -0.26251990597930    2.69987660521871
O          -1.46486837156845   -1.22945749802656   -1.59361237439293
H          -0.91165676867933   -1.45692239099968   -0.83424973442384
H          -2.05868037774610   -0.53834644259480   -1.27555583323090
O           0.59531541540307    0.04331757733309   -2.70953756123150
H          -0.25005756975866   -0.44449240739047   -2.58495693307688
H           0.60382490788316    0.67393927324344   -1.95445498487615
O          -1.32902266589359    2.35075016866680    2.36408718948390
H          -1.05306336416846    3.20651479032126    2.69337372419552
H          -0.51006324384710    1.81935315575090    2.27948718061126
O          -2.06862360299536    1.02977910664116    0.08778717611221
H          -2.22557718977087    1.73374871561708    0.73391647873465
H          -1.12038363340201    1.13992035757625   -0.14524494872730
H          -2.01886750132726   -0.17252400843546    1.31137727701638
N           2.35720205332192   -1.43732203934284   -1.56341948241755
H           1.64338283428729   -0.86200793608634   -2.17265350827529
H           1.93037771740759   -2.30771944150715   -1.25867739896318
H           3.22597188345207   -1.61111810661285   -2.05874165861416
