    26
        -50.46361863  Gyration_radius:  2.41424824083 Dipole_moment: 7.891
 S           1.12190529426453   -0.26300846945718   -0.21209545737057
O           1.44687007639922   -1.60442985212554   -0.87369888373209
O           0.19692153778407   -0.50648051580679    0.90578893738430
O           2.38491451587222    0.29430423018965    0.27080093028837
O           0.51985493196091    0.63750072710954   -1.18824559851360
O          -2.26526126525590   -1.01100868778822   -0.10860929159979
H          -1.48241011948813   -0.84658406421780    0.44465086781607
H          -2.45570905246107   -0.16051136371840   -0.52847604779172
O           0.36191035838116   -3.16768247852099    1.46350713236301
H           0.29026037294371   -2.19669323303689    1.43895668708773
H           1.29748853250306   -3.36593154753968    1.39431461426752
O          -1.89913940861945    1.57740954631268   -1.10494317887590
H          -0.99186438066007    1.19647384016287   -1.21678709577252
H          -2.19121547639869    1.84305519932925   -1.97755683683683
O          -0.62286418039448    1.98756149557360    1.31747035740927
H          -0.37486209336084    1.03812849379451    1.35919627584031
H          -1.31633530455190    2.03134342366293    0.63941303073653
O          -0.68250734389334   -2.95203426230393   -1.04153799602643
H           0.58195682764374   -2.14555425807511   -1.04109691962461
H          -0.51814286301595   -3.38291902953305   -0.18123035879152
H          -1.41864205565687   -2.32429990756828   -0.86641011919862
N           1.62075260853324    2.71119403722936    0.22168104727516
H           1.45219018865483    2.90773100779954   -0.76168606628629
H           2.08572370908980    1.71544309801427    0.26605199158704
H           2.18744649192135    3.42933862683035    0.66162464005289
H           0.67075808788756    2.55765394356533    0.71891734840485
