    26
        -50.44477121  Gyration_radius:  2.61799523905 Dipole_moment: 8.917
 S          -2.91153586944181   -0.49249461868955    0.46502063163329
O          -2.15142331614433    0.33251042468888    1.36758424971971
O          -4.13855505778781   -1.02255441972781    0.93077024657479
O          -3.13017118808862    0.25302587431373   -0.86264415302611
O          -1.95833181629308   -1.66925346138882    0.02181126621794
H          -1.13814068437659   -1.66547572188626    0.57871008565596
H          -2.22306684353672    0.59833363519852   -1.12739214722189
O           0.33374330068849   -1.72525802532871    1.30878224675716
H           0.33063002713227   -2.36528109139533    2.02190704383536
O          -0.72573833591958    0.93278796792333   -1.41731476400721
H          -0.26411446666084    1.45846314342536   -0.74002522688794
H          -0.21366201013924    0.10606018759864   -1.50031831766895
O           0.65939031281429   -1.45295884591725   -1.40387806678010
H           0.71118285125510   -1.60792518656566   -0.44521150715404
H          -0.04145060577126   -2.02849472832632   -1.72002088846458
O           1.13180855205707    2.12605723765587    0.21923278997290
H           1.81628608394214    1.61201716707584   -0.29186425648083
H           1.36777704303274    3.05236323041441    0.16350521476422
O           0.30297921397896    0.61640813183102    2.35393738074620
H           0.40266149746275   -0.81349629382233    1.74748889936712
H           0.67513104792598    1.23470285653406    1.70114912073284
H          -0.66133563889104    0.66995224995827    2.21954610854726
N           2.82233609093684    0.64457850550615   -1.24173114396125
H           3.62822780721116    0.27452447233438   -0.75344452309274
H           3.14639218392313    1.07143061600574   -2.10070929445570
H           2.22897981066561   -0.14002329738829   -1.49489099525185
