    26
        -50.43947905  Gyration_radius:  2.62174675045 Dipole_moment: 4.164
 S          -0.85279866429299   -0.81261480364144    1.27111330639440
O          -1.07633672658954    0.60352348307170    1.19347643687744
O          -1.53776844355235   -1.49712752935695    2.31461113514761
O          -1.26305868000801   -1.42711383137268   -0.12522776109502
O           0.64220955005741   -1.12094063771370    1.30265034862993
H           1.01781379004881   -1.13856361152324    0.31406031528905
H          -2.26905407561628   -1.35559050746760   -0.08696944831151
O           1.51966812607082   -1.17710673686298   -1.02724653800440
H           0.87296855943112   -1.70558325325906   -1.50043948634718
O          -1.38430796238923    1.34002708785644   -1.34305512255434
H          -1.76528982728738    0.52052526203585   -1.66512710149077
H          -1.28428481356028    1.23159789521098   -0.37559339707250
O           3.29820919841788   -0.06217672136104    1.06869616394722
H           2.55438732214100   -0.32939802652358    1.61934832088562
H           3.24609090083282   -0.61045442476373    0.27901772576825
O           2.68834589470340    2.37665953101619    0.03137488150735
H           2.94655147783102    1.56363482770057    0.51201559077354
H           3.49858877923125    2.85368353904703   -0.15259925732970
O           1.25001584072686    1.18536500392511   -1.90518634926822
H           0.30033370575905    1.39726244381003   -1.78658893529282
H           1.73198827882480    1.74466526438300   -1.25962016493725
H           1.44656767079297   -0.22172172120923   -1.41461322888459
N          -3.70948327552292   -0.92161586599585    0.50812705580939
H          -4.59803790128503   -1.35959963483066    0.29778348467059
H          -3.83104615888417    0.08335370950077    0.47069424551647
H          -3.44227257586178   -1.16069076169532    1.45929776934306
