    26
        -50.45927978  Gyration_radius:  2.43333131446 Dipole_moment: 3.150
 S           0.80426781217217   -1.80971071601218    0.92849273450355
O           2.13183407547789   -1.50391173449515    1.37902331604265
O          -0.24320675053923   -1.50777192351214    1.88920807495478
O           0.48769593839272   -1.20815192182724   -0.37533374540928
O           0.75128248848880   -3.37704093567407    0.66503993748482
H           1.36275355563154   -3.72549368046377    1.30619889648743
H          -1.14402840885799   -1.00211444770039   -0.26399221411346
O          -2.06865694960414   -0.78582647221116   -0.00090401648865
H          -2.14976640677084   -1.20513336614905    0.86405446078472
O          -0.06487471967475    2.35038464759298   -1.22284901646913
H          -0.18664647122295    1.63130890191943   -1.90993785471359
H           0.77890154304393    2.14827821726092   -0.79084258250459
O           1.86198144974428    0.98007507154421    0.22545643659436
H           2.68488892366051    0.66606404765662    0.61055941547739
H           1.41974806355327    0.16206373851405   -0.08276784660116
O           0.05139130111070    1.07307619610634    2.25750728434628
H           0.85150691008364    1.20544337325711    1.71341199354112
H          -0.06312783520283    0.09603025342132    2.31116343456252
O          -1.68620670119507    1.67543919557806    0.54887583537322
H          -1.05526899505424    2.04557063857972   -0.23215997859815
H          -1.96540646910732    0.72589149898992    0.27198657765946
H          -1.03234188689853    1.51922523783611    1.35612954789943
N          -0.36256765861544    0.21809763878125   -2.76754562197814
H           0.04818867739142   -0.45067776759558   -2.12083241712609
H           0.11646091444156    0.13003558650789   -3.65436995794087
H          -1.32880239038153   -0.05115127799203   -2.90557270368532
