    26
        -50.46572459  Gyration_radius:  2.46275851771 Dipole_moment: 4.459
 S           1.89813134934592   -0.76295941603593    0.73030716714860
O           1.33802235360531   -0.16440787704284    1.92801046552780
O           2.74409058055792    0.12753817127075   -0.02128929973480
O           2.80458819381568   -1.98485423648806    1.18795125208601
O           0.84240186891762   -1.35018102272082   -0.10351927658060
H          -0.46555520991970   -1.25329152145736    1.04286143459414
H           3.69701944879698   -1.65807432996518    1.11848126942311
O          -1.26551414404085   -1.12092004286236    1.58474647584640
H          -0.92774573819564   -0.92688029399200    2.46232943997986
O          -1.69867475251758   -1.93737487834291   -1.19785746865724
H          -0.75593923674424   -1.96361281939496   -0.98595341937522
H          -2.14417746169177   -1.97577593905664   -0.34541111481207
O          -2.01501403942597    0.61670483933428   -1.99335811898179
H          -2.07299226646768   -0.35788404681834   -1.88912367856639
H          -0.54565245266151    0.81438828721889   -1.89950590545520
O           0.69129593677824    2.09892199801610    0.81332100022300
H           0.91797356978651    1.27649161241031    1.31482381518280
H           1.41547540742325    2.70516002830451    0.97950071605474
O          -2.06132656665223    1.29407263911334    0.57466551734648
H          -2.25673040369920    0.97339262958734   -1.10579483965194
H          -1.91163662570000    0.41957578539442    0.98554199139158
H          -1.27101508179526    1.80981773194648    0.77088923858060
N           0.51264867326170    0.84057715040198   -1.59869778548687
H           0.74994824398476   -0.09377403808630   -1.20116551401113
H           0.62986112372394    1.50073463871019   -0.79975909916508
H           1.15051720952757    1.07261494055563   -2.35199426288310
