    26
        -50.46577287  Gyration_radius:  2.41257957879 Dipole_moment: 4.011
 S           0.28482619460317    0.89635981984519   -1.18419497598525
O          -0.53787873213824   -0.30884768281790   -1.29335439015023
O          -0.50549387603094    2.09245736003929   -1.04299252778797
O           1.12962733885395    0.72061649051797    0.14517302081543
O           1.30789368281648    0.94678460225191   -2.22018761266409
H           2.29205303329204   -0.02470661090283   -1.75102780278396
H           0.50611088240411    0.93144467270583    0.89452897830187
O          -0.62899411596005    1.13680400727677    1.99247315823046
H          -1.02698785254400    1.99694935276073    1.83001446561842
O          -2.82475292431548    2.07962917634434    0.22029289998170
H          -1.98320379304328    2.11191095580963   -0.28867135062558
H          -3.43127157913742    2.65423122038738   -0.24752580195110
O           0.03233879373766   -1.84650334122911    1.90320094739875
H           0.29934604745724   -1.00511575923736    2.28368328060860
H          -0.89241483184387   -1.73433617620485    1.64478737140154
O           0.96570420822345   -2.32708586424834   -0.58668051344925
H           0.75850696020689   -2.31695568117859    0.37215415873588
H           0.30464419184099   -1.70658509422604   -0.97393525698754
O          -2.22376506819640   -0.54512760930838    0.71748348792366
H          -1.30022505236035    0.48792594989217    1.65789485433929
H          -2.87462030922161    0.15610913826586    0.56620546832702
H          -1.67452052420843   -0.54507329979074   -0.09992847802282
N           2.90671321822803   -0.78550393729446   -1.26149176688735
H           3.59701736117278   -1.17599269840541   -1.89463752699130
H           2.17472909070997   -1.53383183876185   -0.93110279043059
H           3.34461766557750   -0.35555717249197   -0.45216131707908
