    26
        -50.46705302  Gyration_radius:  2.47049127413 Dipole_moment: 4.744
 S           1.88658696180207    0.45792195105740    0.98606134670641
O           1.15339389052712    1.63962383308597    0.61256231888473
O           2.34805862212997   -0.32315915031768   -0.15821670693718
O           3.19499936226640    0.94005917097450    1.73558187780749
O           1.16354848635598   -0.38139159611672    1.93491816043120
H          -0.31892239805955    0.44080055111383    2.04034319506544
H           3.63067435378550    0.11141635751190    1.90415752309872
O          -1.20413651551807    0.85649173964382    2.02514035691148
H          -1.02906012173984    1.79882995175311    2.06848546813322
O          -1.34536067268119   -1.83880580886262   -1.20900224206309
H          -1.71414091545312   -2.66944925130958   -1.51124839550961
H          -1.09114577340520   -1.97856970034388   -0.25423805319199
O          -0.75284521057849   -2.10229262330104    1.31912810391078
H          -1.43398777552437   -1.66236934450926    1.83672757769973
H           0.06771727439233   -1.60749274598198    1.52804082526722
O          -0.33121003790747    2.09024346814265   -1.57460857090898
H           0.24548545474462    0.77369848259130   -2.04302426029626
H           0.23048595119913    2.18582344068739   -0.78158405550605
O          -2.32726753871589    0.73991027169251   -0.45918425659261
H          -2.02378585497599    0.75715877844568    0.47081235782014
H          -1.19989932972001    1.77325343652778   -1.22745525886049
H          -2.18587381776952   -0.16276346720588   -0.77164169540464
N           0.66009970429077   -0.22930070835369   -2.13221301098781
H          -0.08860640189400   -0.91507080454009   -1.91900729721265
H           1.40271612305146   -0.30103813604295   -1.37275046090941
H           1.06247618944178   -0.39352810634623   -3.04778483731312
