    26
        -50.46705318  Gyration_radius:  2.47036164423 Dipole_moment: 4.740
 S           1.39773528100026   -1.65370172414825    0.22683008754701
O           0.90122029343213   -1.16880724266831    1.48846346606388
O           2.22176286339984   -0.67997826813710   -0.48387783837867
O           2.35052524537770   -2.87814149471289    0.54163977383064
O           0.34286681435598   -2.17461971692950   -0.63541992995767
H          -1.04084487929818   -1.81694955592476    0.28256374148768
H           2.65514435637264   -3.10683971481972   -0.33001102834829
O          -1.84037186932989   -1.52289815137584    0.76302024123570
H          -1.65955627173574   -1.73008069263325    1.68222822546385
O          -0.86448797812053    1.81272894121751   -1.61911299233291
H          -1.12559532412734    2.31827927915386   -2.38957978124635
H          -0.98857507470642    0.85266963011105   -1.86128936102190
O          -1.26398364942606   -0.71163642741798   -2.14830427348642
H          -2.07305965319834   -0.98858863368292   -1.70773846298793
H          -0.56361817505209   -1.26031011161308   -1.73542886459481
O           0.35740350757848    1.34720855769362    2.23979821466571
H           1.01788654408591    1.71309903361434    0.93022788048100
H           0.58619761122159    0.39803551532450    2.22261196961494
O          -1.95875046799359    1.19700757183042    0.94961780954289
H          -1.74453576700025    1.53259618845930    0.06988014285335
H          -2.02365009645267    0.22465509689125    0.86223286671491
H          -0.58915684595494    1.37989027036002    1.95947886132991
N           1.39838124357186    1.75343509764186   -0.08934901738794
H           0.59942636307334    1.90698750606650   -0.73305290304560
H           1.80042202456840    0.78696620476128   -0.28349533831867
H           2.10721389438006    2.46899285093036   -0.20193347974655
