    26
        -50.46934072  Gyration_radius:  2.48052996983 Dipole_moment: 4.124
 S          -0.62823449588853   -0.47377006640593    0.41647350360829
O           0.27523879369587   -0.16205979156463    1.50720865971387
O          -1.91327601151322    0.19018186838879    0.53752578017049
O           0.00688022300192   -0.15265530954753   -0.87586694598350
O          -0.84888425293751   -2.01175811056435    0.42799186538772
O          -1.52592427907815   -1.02516603084488   -2.86509084045055
H          -0.93654190299571   -0.62885867813527   -2.18912683160171
H          -0.99251283574072   -1.66021545005436   -3.34616565565371
O           2.80715427065242    0.85879534174827    1.59591134610724
H           1.96305370741875    0.53922753471900    1.95707200348900
H           3.19755312948986    0.06432674022901    1.20811002478651
O           2.29695985841018   -1.66642102523488    0.49304507195858
H           1.48641042956688   -1.26086512793104    0.84081410295301
H           2.03651467794612   -2.52997893867251    0.17125606856432
O          -0.87172150473533    2.53542938875123    1.18216452792918
H          -1.38561541200383    1.74111065896878    0.91180832403995
H          -0.69639304300042    2.40634361747384    2.11747330875550
O          -3.07245355568344   -1.85395179560105   -0.82410405171448
H          -1.73167445245705   -2.15194882591391   -0.03750068791733
H          -3.16704559567487   -1.00660569539560   -0.36400092936462
H          -2.72481496179331   -1.62551731332612   -1.71176570392466
N           1.30936320573677    2.00603897939274   -0.25223924139137
H           0.88136496617024    1.13086783823202   -0.67419262854140
H           1.66413943677635    2.64256258414236   -0.95738784089921
H           0.51420084545424    2.42077679407439    0.30387501618868
H           2.05625873932205    1.67411081366144    0.42671175315152
