    26
        -50.46934072  Gyration_radius:  2.48049558815 Dipole_moment: 4.123
 S           0.68389197324010   -0.15963334438540    0.54709167554332
O           0.49996519096906    1.26882935980800    0.71673426247439
O          -0.09209982713533   -0.63687350496069   -0.61336551037229
O           2.18070539055416   -0.39198825276131    0.20083072772406
O           0.34944536388570   -0.91956093890189    1.73763340725972
O           0.50562783795859   -3.18048343407440   -1.10350380786622
H           0.86791243869542   -3.19685016430883   -1.99104725756795
H           0.19466369246791   -2.26308801638511   -0.95166164439128
O           1.24180746313130    1.84285011508119   -1.83269330210002
H           2.02350545821366    1.38284332863381   -2.14005746608238
H           1.11486071241312    1.55849935971936   -0.91322424805030
O          -0.94664774516296    3.13676713653983   -0.65368509363773
H          -0.37990955203891    3.07933415644133   -1.43438851835953
H          -0.37942815781567    2.79755683964143    0.05923065356363
O          -1.89802823014352    0.39943066977426    2.19649022267674
H          -1.56159962620096    1.18819261583882    2.62879998145167
H          -1.11845665300375   -0.19596525858242    2.12008537589060
O           2.14443251054514   -2.82000390851279    1.00099164538740
H           1.62162680024534   -3.20830753901429    0.26828647585177
H           2.36591152282622   -1.34490065392875    0.47158045635932
H           1.48824330646186   -2.50397061363895    1.63989940121257
N          -2.22131152024091    0.83642441394783   -0.41120387874998
H          -3.08110926516577    0.60863535189354   -0.89816557913987
H          -1.87691558439847    1.82224883204453   -0.60763516937270
H          -2.30361686754812    0.71417946505718    0.63367174941022
H          -1.42347663226943    0.18583399522318   -0.67069455925470
