    26
        -50.47230359  Gyration_radius:  2.43501056039 Dipole_moment: 1.601
 S          -0.44110057246096   -1.15456963078972    1.70740867032311
O           0.74034662980166   -1.96794054950141    1.87414296545754
O          -0.28646238499722    0.21105795844559    2.18345552499148
O          -0.97225131081179   -1.17288263130362    0.35182458772359
O          -1.55387349444439   -1.83082420681408    2.61954190109604
H          -1.01779761871472   -2.36784423543477    3.19291842824487
H          -1.60813695306676    0.34832614978835    0.22127355900815
O          -1.92529259383973    1.27341341736731    0.12959651686243
H          -1.90153936738401    1.61276658449147    1.02766589932420
O          -1.80336896822489   -1.08685814024848   -2.15807235484495
H          -2.41514544652759   -0.35182720080196   -2.05949312172018
H          -1.62221432901885   -1.38598430540330   -1.24803259144598
O           2.09920352589645   -0.95023804614781   -0.15267326835166
H           1.64266111765618   -1.47979972634065    0.53315307258535
H           2.23628356097705   -0.08249028047092    0.26394598852311
O           1.72022567369345    1.45735636791781    1.12558239654681
H           2.21453286389589    1.87643186511195    1.83128963292803
H           0.94919651567612    1.00629328123692    1.56123134892154
O           0.26445216509943    2.23769998251843   -1.07307128879129
H           0.54676876315526    0.92117287377951   -1.87540853534589
H          -0.62130285262686    2.03030070352811   -0.69580808217136
H           0.87633177941044    2.16292011034822   -0.32044056920485
N           0.69162078313712   -0.08493069331561   -2.21183733051533
H           1.22954158898327   -0.57146934182646   -1.43353351458525
H           1.21070392525363   -0.11878828878288   -3.08176674597663
H          -0.25338300050565   -0.53129201734495   -2.31289306958050
