    26
        -50.47230206  Gyration_radius:  2.43529057607 Dipole_moment: 1.589
 S           0.26752227646025   -2.02622118582702    0.52413627405792
O           1.49988026885155   -2.38154821754707   -0.13949396065361
O           0.45609954313858   -1.26961703829411    1.75151414075766
O          -0.69085537604817   -1.36331631450763   -0.34937932039145
O          -0.40223860483716   -3.40711890879299    0.93920299165513
H           0.33108824032273   -4.00353483510411    0.83407773432048
H          -1.45907188419129   -0.34890506782332    0.70673178764569
O          -1.86850312004379    0.29516511643638    1.32520174773203
H          -1.57460803325004   -0.00044795978043    2.19031700295843
O          -2.33102095133899    0.00922514420767   -1.90673968314341
H          -2.92849225724937    0.31132590193213   -1.21676045682101
H          -1.82633785239426   -0.71880059320293   -1.49966872718735
O           1.99521492256163    0.00618177318704   -1.16032485312685
H           2.19200905615521    0.42647043373199   -0.30605178543295
H           1.84648128624767   -0.93634748478242   -0.93935691315421
O           1.86886177188801    0.87797365659995    1.44800988289212
H           2.53252874224932    0.89703775057572    2.13881168398061
H           1.33395728390088    0.05512977977442    1.60426254816743
O          -0.30826930631386    2.37850312600889    0.69444138294642
H          -0.99179141995056    1.73671129685860    0.99576722017987
H           0.52684471995698    2.03825400986827    1.05964366692570
H          -0.20335807187063    1.98856435814037   -0.82001751228284
N          -0.09677247373273    1.49854104097113   -1.76602497385028
H          -0.97857411536451    0.95947218461856   -1.95158058594033
H           0.71299804739435    0.81908495701910   -1.64580771435999
H           0.09640732745566    2.15821710573457   -2.51091160787463
