    26
        -50.44166668  Gyration_radius:  2.54748837801 Dipole_moment: 2.608
 S           2.11745085870837   -0.30617480622630    0.62195282220491
O           0.82399043292843   -0.92879805705561    0.45154765643629
O           3.19694392009677   -0.87177121752433   -0.09612334970639
O           1.99270148769974    1.19725880598073    0.32252722542879
O           2.44802135384473   -0.32448932863770    2.14751902550674
H           1.60295388206253   -0.19240404748345    2.62112093058494
H           1.08208916980554    1.48944205861194   -0.03666791016850
O          -0.23735102281159    2.05818255263343   -0.51008874228396
H          -0.18641712149366    3.01573446213343   -0.53565133845870
O          -2.70688156028582   -0.72918735052402   -0.11256174427691
H          -3.60103164098173   -0.76304054875859   -0.45556248578183
H          -2.12629414494215   -0.57007201720144   -0.90020713196463
O          -1.23989474164737   -0.00649715194815   -2.20721500204532
H          -0.46399716388699   -0.57550499037868   -2.39512632053702
H          -0.87053446143305    0.79857087491766   -1.82338716705153
O          -0.17062523575751   -0.29963686973027    2.74048377916802
H          -0.56611421377701   -1.01599414838000    3.24215527229730
H          -0.04272078534468   -0.63806047715429    1.82310302139787
O          -1.90396748158943    1.36198570531498    1.30776286699022
H          -2.31110261651558    0.59307113014490    0.83730694221400
H          -1.37097031860094    0.96910136167493    2.01426670437512
H          -0.91747465522243    1.82245514834349    0.20949827217217
N           1.13130429910468   -1.38978991777729   -2.41432456628351
H           1.98208304325044   -0.89158689250314   -2.64679576372437
H           1.21555808947262   -2.32169389939839   -2.80226628748048
H           1.12228061730942   -1.48110035905241   -1.40326669902943
