    26
        -50.45060230  Gyration_radius:  2.45505269363 Dipole_moment: 6.049
 S           1.48348283454727   -1.17926771761672   -0.44891916833745
O           0.32734393050311   -0.49089604661852   -0.96380157199473
O           1.56569914456289   -2.56733036379749   -0.77846768314612
O           2.73929860499855   -0.43905995267506   -0.89144355663853
O           1.50402377566840   -1.01403035745994    1.09742782821258
H           0.63069630224341   -0.67539991775686    1.45565645186757
H           2.45445052196365    0.59282304868008   -0.90848822594119
O          -0.70521498840815   -0.14963079866563    2.10064076889460
H          -0.84418043515328   -0.60106402604102    2.93484958744198
O          -1.77342339103518    1.16084182780906   -1.09376831099775
H          -1.44313938963056    1.78838731707031   -0.43854186850559
H          -1.01961841893382    0.57244966129164   -1.26250968694144
O          -1.10404274178898   -3.02648114062022   -0.68652097408104
H          -0.13267562822974   -2.95828525429884   -0.67303883362663
H          -1.34513779266305   -3.09436528406721   -1.61268473476257
O          -0.22520857351616    2.32465919704547    1.05072149751228
H          -0.46132561429253    2.98623124394288    1.70294455695531
H          -0.37117803930665    1.45688099481541    1.47051155533544
O          -2.46160754910490   -0.96045226500988    0.47067672342357
H          -2.43177656180656   -0.23509694974550   -0.18788569523329
H          -2.03412724457808   -1.73367368496064    0.04780035238047
H          -1.44517901754967   -0.48678342501386    1.46553465114243
N           1.89531100336804    1.95085806337745   -0.94346337221422
H           1.23081089705680    2.07773219725467   -0.18107022540968
H           1.38123345102535    2.01100254447442   -1.81315103127476
H           2.58548494006310    2.68995107857929   -0.91300904407487
