    26
        -50.46982872  Gyration_radius:  2.54252943566 Dipole_moment: 4.891
 S           0.30359485246991   -0.53495283649508   -1.05965855519213
O          -0.84703068571044    0.11682340917168   -1.68408875622589
O           1.40549060631712   -0.72272227992934   -2.12853287971349
O           0.86551046641245    0.35393393248946   -0.01677142160868
O          -0.04238333409819   -1.82817398129021   -0.51979204673505
O          -2.62195601297766   -0.92581934269752   -0.03989274703875
H          -2.24006167115662   -1.81053662678254   -0.01343744291832
H          -2.16262183658305   -0.50268779419636   -0.79737696678423
O           1.57698188192915   -1.78295937999520    1.56775255660802
H           1.00689351587045   -2.11615670709811    0.84745442578165
H           1.82429926001910   -0.90638056458540    1.24689899071493
O          -0.10235175509854   -1.19138740574150    3.50814032097482
H           0.40405168473439   -0.99386000158178    4.29710395262173
H           0.54391761723033   -1.55492961143586    2.84585792581473
O          -0.32550733861629    2.49258759011117   -2.71201412519964
H          -0.61625657983029    1.63976844912495   -2.31924962913969
H          -0.61856511891718    2.47619737526830   -3.62467854734611
O           2.14392781395203    1.73742470396975   -1.99164963760401
H           1.36048387770624    2.20423566117249   -2.35456767749134
H           1.95033259766687    1.62192138224368   -1.05125857311421
H           1.81261172586122    0.18587106895476   -2.24308648680373
N          -1.13646049735652    0.43011731719385    1.66944360268895
H          -1.86436365444521   -0.10532243276468    1.10530464092006
H          -0.83990534607650   -0.14151203851370    2.50244483027014
H          -0.29611711001307    0.51517561770433    1.02383609123653
H          -1.48451495929279    1.34334448570527    1.94181816529518
