    26
        -50.44793409  Gyration_radius:  2.52273085711 Dipole_moment: 1.647
 S           1.67147055457959    0.14567778988294    1.44186819592015
O           0.70458274195045    0.02436973301123    2.50462231572963
O           1.42237177892102    1.27623926268884    0.55682804313949
O           3.07143882856537    0.43111415186255    2.13755946821204
O           1.83627957311606   -1.09215399824610    0.68449678279622
H           0.30252306947846   -1.49847580808448    0.66518614690713
H           3.67175021732469    0.59044241862262    1.41518831664422
O          -0.66778286291844   -1.71625364861933    0.71634141833638
H          -0.77303947006663   -2.12775002981251    1.57785030696106
O          -2.35065998611867    0.71413153159842   -1.79822433436431
H          -3.21902421452176    0.58351772518225   -2.18229141481928
H          -1.79831663153142   -0.09463521219642   -2.04906728265538
O          -0.93482980216592   -1.40240528838525   -2.16047623159127
H          -0.92613387623145   -1.84084046312229   -1.30175585113587
H          -0.02424120013707   -1.00454119147121   -2.24742540197179
O          -0.69940250983776    2.07884748466812    1.75805875843479
H          -0.38120999384126    1.51488151322244    2.48840128235686
H           0.08210320217767    2.03934416656264    1.15107123262199
O          -2.16984154010725    0.38529196876173    0.68763802096768
H          -1.60207743868563    1.18180032023984    1.14444176940117
H          -2.28575711904917    0.60425550020555   -0.32492961677029
H          -1.57989220401577   -0.44309460924949    0.72726429677199
N           1.43390860533205   -0.21094721302792   -2.00547316996588
H           1.28131233878850    0.76920839120214   -1.79568498317036
H           2.19979352472363   -0.27518565448141   -2.66401799533685
H           1.73467438413855   -0.63283882093422   -1.12747008341857
