    26
        -50.45060122  Gyration_radius:  2.45539561362 Dipole_moment: 6.052
 S           1.37549402421774   -1.37762865709831   -0.09812561814477
O           0.38595180429653   -0.63960053624195   -0.84102208566712
O           1.33613837869074   -2.79593304422972   -0.26759389342855
O           2.75667610216656   -0.82775944331949   -0.43130941905483
O           1.21227380192137   -1.03490506163374    1.41009582771732
H           0.35419183654304   -0.55161974706604    1.59865248464260
H           2.60028928908170    0.21697996571620   -0.60951606310657
O          -0.97384128183910    0.20222835614576    1.98217804161290
H          -1.27192363293867   -0.11513871822799    2.83627628221974
O          -1.46999227465775    1.18495697440273   -1.46076730807969
H          -0.77593285928864    0.50596076604400   -1.45128101194245
H          -1.15363945401036    1.85684969476807   -0.84377819958352
O          -1.36035882206960   -2.95994104745371   -0.47862083911402
H          -0.39627799820865   -2.99083964537067   -0.34470854089846
H          -1.49709359865699   -3.13209380170393   -1.41241242755834
O          -0.07791266683671    2.45617993339192    0.73030019830140
H          -0.31346351661496    3.21664310365692    1.26427186226374
H          -0.37658359312755    1.66875652480502    1.22178674792646
O          -2.59627172462024   -0.63074669220852    0.22895450712659
H          -1.66317389657825   -0.13762974578101    1.29374156990243
H          -2.39767912825717   -0.00503250358348   -0.49894563754005
H          -2.21395868586301   -1.49229341521023   -0.03710621090623
N           2.21895422703269    1.60750496194563   -0.88405122602573
H           1.48110287792527    1.90268579069531   -0.24576613057286
H           1.83342665607275    1.60383911875876   -1.81975373541995
H           2.98360412562109    2.26857686878605   -0.84149915465782
