    26
        -50.46585218  Gyration_radius:  2.46272545479 Dipole_moment: 3.872
 S          -1.77143996980055    1.25478722178569   -0.29766052058131
O          -0.75285544275399    1.37718066663017    0.74378670724574
O          -1.37187699909435    1.87020957560333   -1.54079615673226
O          -2.22219590893968   -0.11930839040503   -0.43143593256854
O          -3.02705282769357    2.08416951383578    0.20484518259207
H          -2.93408188724845    2.87533661241139   -0.31439783506884
H          -2.10176199611909   -1.03859826510318    1.53214726637575
O          -1.32381212392283   -0.83315512756753    2.06149000640162
H          -1.06154947561641    0.05174350173865    1.73184038272093
O           0.90322104684301    0.70672659648183   -2.32410180502177
H           0.61772157561191   -0.21002629503767   -2.18858146264471
H           0.08558022989274    1.23414956438012   -2.22569141633270
O          -0.41966893613761   -1.60824407217628   -1.53162449044022
H          -1.13426486514393   -1.04068786943932   -1.13638719616032
H          -0.86193117945475   -2.20023087454278   -2.14237425805266
O           0.58623414116051   -2.23818875127409    0.90426282192000
H           0.28913660237848   -2.14611013848390   -0.02213302726443
H          -0.13786654302487   -1.82269603834964    1.44139468874241
O           1.75199750528573    1.55454110565415    0.00490129272379
H           1.61737807779116    1.30617635585457   -0.94739510363394
H           0.83192145486722    1.65242819424008    0.34186560497613
H           2.21319566798922    0.37671272434178    0.69467747188953
N           2.51218716329519   -0.55078105330500    1.23907622627765
H           1.72319890927011   -1.29454279965002    1.09264818656439
H           2.59339021797554   -0.34347311590268    2.22910636541075
H           3.39519557257213   -0.89811883171992    0.88053703066884
