    26
        -50.45020627  Gyration_radius:  2.49120244921 Dipole_moment: 5.967
 S           1.84348333280809   -0.83122087498381   -0.07974938543582
O           0.70308896807458   -0.55527971392536   -0.93788946021548
O           3.10957924428543   -0.48597180572595   -0.61759784713999
O           1.61064726408697   -0.11914092770410    1.25660705104604
O           1.81959793155626   -2.33218654674401    0.27887398315454
H           0.96041657682439   -2.48790512148158    0.76474667830535
H           0.61852990374686    0.20727322423990    1.37428200502804
O          -2.36906076922823   -1.14284364499754    0.12238494174708
H          -3.23628737846084   -1.54535563784207    0.19050366312156
O          -0.41874879196448   -2.35706513244095    1.57801076237009
H          -0.29069557673647   -1.73309750254405    2.29815604381005
H          -1.14125261234269   -1.98892368520196    1.02641377180735
O          -0.74202676229022    0.67910170006895    1.51760929765376
H          -1.33205040854404    0.19100672711593    0.92247393632818
H          -0.64277544686478    1.60478982503162    1.13190639580157
O           1.72701474901223    1.91578033326375   -1.35114516252016
H           1.26049056120948    1.06782531616493   -1.38909314840361
H           2.64513871812244    1.67206228352380   -1.20340856406812
O          -1.36870040827333   -1.44949288599716   -2.31007493352516
H          -0.49972422025627   -1.23744301207231   -1.91495954573619
H          -2.06932588933907   -1.26756516058755   -0.81107948475721
H          -1.50945535586732   -0.79665013395815   -2.99844136335615
N          -0.27398042251013    3.02900223156852    0.41812750128148
H           0.47908194285263    2.76725227533518   -0.22092041891898
H           0.10472397879900    3.69645283458670    1.07805234088927
H          -0.98770911913641    3.49959503508367   -0.12378906933571
