    26
        -50.44793425  Gyration_radius:  2.52338816506 Dipole_moment: 1.640
 S           1.94226507656132    0.49645869589131    0.93899919622557
O           1.21530248559569    0.87668392480266    2.12468128082702
O           1.54412304047150    1.23984735248758   -0.24946367485307
O           3.46361509385327    0.87164475676016    1.20381217172691
O           1.91272391386104   -0.94342462737698    0.69625671497131
H           0.40022185455964   -1.16941300675327    1.11905021799707
H           3.90260241443353    0.69352670765155    0.37720798262976
O          -0.54250731962506   -1.25203650240209    1.42886191401782
H          -0.47397359957540   -1.30159877423652    2.38564530240270
O          -2.66500855087377    0.23203282554819   -1.46131146577175
H          -2.19563344734511   -0.66329935169599   -1.48236845501975
H          -3.59804906849348    0.05629019954714   -1.59240123341237
O          -1.40333322773610   -1.99841148281499   -1.24426709257705
H          -1.22410904514502   -2.08703018724273   -0.30100602434920
H          -0.52262064935737   -1.75516960949236   -1.64449441649868
O          -0.26085065965639    2.64309526657547    0.91791532336974
H           0.37650527644524    2.29937206365251    0.24226943949549
H           0.18765392930557    2.36485139392078    1.73860003668301
O          -1.96381897167052    0.83291105588263    0.87669882667590
H          -1.29394641620088    1.67859513908096    0.87639270869116
H          -2.28857468333800    0.67086655218124   -0.10073005251051
H          -1.39879717317911    0.02207903711718    1.12036767075380
N           0.97238538053115   -1.08196542921326   -1.99985041523351
H           1.58008555395338   -1.46525806270175   -2.71271716660459
H           1.44119070897777   -1.17688220347856   -1.09948561285825
H           0.89254809351627   -0.08376574373425   -2.15866316672797
