    26
        -50.44970649  Gyration_radius:  2.44940153408 Dipole_moment: 6.188
 S           0.65664696041138   -1.53614980725396    0.65255636055409
O           0.23470943685803   -0.33882901180648    1.33030331245986
O           0.20993765199047   -2.77596972576585    1.17031846902579
O           0.23825653349981   -1.44892509876994   -0.83524366409795
O           2.20846651916389   -1.52639125719530    0.59185869791284
H           2.49603017937443   -0.60235867201389    0.37637416389590
H           0.36140935417117   -0.51832920195397   -1.20347624431705
O           0.63831686572871    0.88868712850843   -1.79768034751774
H           0.41430237735478    0.92388044187313   -2.72899305872556
O           2.82222517900804    0.88426914693613   -0.25214177903169
H           3.63356089955256    0.86372909166343   -0.76398021944657
H           2.08270433869621    1.00718945508656   -0.88463454103782
O          -2.31443150553164    0.40835125952226    0.64420414261439
H          -2.60169963667836   -0.46348274895763    0.30622187637901
H          -1.51348527833615    0.20424903872748    1.14759415895097
O           0.87520588881457    2.32425168153691    1.41065086595358
H           1.77608018701606    2.25212059149255    1.08314648035780
H           0.60491295070812    1.41321050444523    1.60589812572240
O          -0.97287280871690    2.35195212028973   -0.56258408911520
H          -0.40915066996856    2.60193178216136    0.19926844273204
H          -0.05057477525207    1.51843798466539   -1.31155523531237
H          -1.63271471818818    1.72074699523990   -0.18653921841406
N          -2.49522441048420   -2.26576197527943    0.03149391977475
H          -2.35245005904509   -2.51707564439213   -0.93907178991780
H          -3.25714773169307   -2.83259955174730    0.38497674401764
H          -1.65301372845697   -2.53713453702363    0.53103444658700
