    26
        -50.44233852  Gyration_radius:  2.52484591111 Dipole_moment: 2.694
 S          -1.62370267147944   -1.30029563602292    0.60783437819753
O          -0.51694083066414   -1.34653284920413   -0.31876479478198
O          -1.89670474115199   -2.46905671344246    1.35449533734720
O          -1.45254927535107   -0.12496820987785    1.58263720786985
O          -2.89104580620777   -0.89772592750816   -0.22386104680848
H          -2.60059265273270   -0.51460703219414   -1.07784785044264
H          -0.98345698882433    0.69444308247724    1.20472850918447
O          -0.31700926646615    1.98862217884624    0.75009651570128
H          -0.82128185523779    2.76521027248415    0.99826848075446
O           2.14887334950948    0.57558259927229    1.13116564993949
H           1.86999911756106   -0.28146709624795    1.51800095047066
H           1.39243529589786    1.16496191017537    1.23362136507639
O          -1.49339426063385   -0.16034449912382   -2.38334849984473
H          -1.51285846176668   -0.68428187197777   -3.18690170363052
H          -0.88114745540374   -0.61813940409036   -1.76018756645099
O           2.30412036992882    0.60086470855912   -1.52548083769100
H           3.15940342106154    0.99017303166293   -1.71294125165907
H           2.27296384643804    0.48602664750367   -0.54255394935509
O           0.09278009671679    2.04578903711884   -1.77812301835394
H          -0.55146652379633    1.43820929898839   -2.16867794661228
H          -0.16361697357702    2.04602580253326   -0.25325211232244
H           0.95177565079168    1.55683599163395   -1.79315570061918
N           1.05064147237483   -1.76734421130743    2.07935849164049
H           0.72839437697214   -2.02781370206669    1.15422960124704
H           0.21805692745685   -1.58883098635307    2.62797656762322
H           1.51632383856903   -2.57133641182934    2.48268325352639
