    26
        -50.44793420  Gyration_radius:  2.52362537311 Dipole_moment: 1.650
 S          -0.74341031249126   -1.19602536390609    1.70921154752014
O          -2.07019321672027   -0.72392538908084    1.39950131371694
O           0.20520248897283   -0.12405857562762    1.98221717171993
O          -0.86539641681741   -2.02993719058886    3.05640446169951
O          -0.22342470652848   -2.11842073394486    0.70325546172806
H          -0.79610060069159   -1.35215975598508   -0.56218115984216
H           0.03296852811920   -2.25038680584409    3.28477366431436
O          -1.20979861859951   -0.84539648627270   -1.31301836346875
H          -2.11837578496868   -1.15616326035312   -1.33604321248899
O           1.00506130478116    2.31700041121811   -1.70727339245205
H           1.04025283984931    2.85819546175937   -2.49752104519850
H           1.26933475613976    1.38132766103154   -1.98480252060771
O          -1.45818051416661    1.79330093280860    1.59674781062042
H          -0.64470612196232    1.28800813514333    1.84858370734142
H          -2.13357489856373    1.09545033778235    1.69434891979161
O           1.41489903952197   -0.14107372772996   -2.34283408746714
H           0.54233768381985   -0.55025725416125   -2.31231677400233
H           1.87523201930134   -0.47215780371731   -1.52217888224507
O          -1.28747400213966    1.69984670846461   -0.88114092729285
H          -0.35137732151618    2.04145434030587   -1.18779440217031
H          -1.28356514986004    0.69467937502771   -1.04202825074454
H          -1.36545020139175    1.83391888023498    0.18663383137800
N           2.29023334569978   -0.93068655245936    0.03735076869890
H           1.50094748243508   -1.53105436033392    0.27391510583326
H           2.23199174416993   -0.14448259818860    0.67491629570875
H           3.14256662360056   -1.43699637559530    0.24127295806267
