    26
        -50.44793411  Gyration_radius:  2.52344256241 Dipole_moment: 1.637
 S           1.81386728824301    0.55606245163228    1.14125536520760
O           0.99093084468274    0.61324464110019    2.32368863898852
O           1.36942166134401    1.45156236792000    0.08103405370664
O           3.25668699253900    1.06438515101570    1.57157969541873
O           1.99258010595293   -0.80516530298942    0.64295236541437
H           0.50905430730565   -1.29683248625771    0.91591941292104
H           3.75310422247640    1.09358090991557    0.75908985138007
O          -0.42573780093278   -1.55517638325837    1.14180707879185
H          -0.39196610032622   -1.77314543360339    2.07662974346866
O          -2.60751590094270    0.15787331760417   -1.57157425006721
H          -2.01871154104179   -0.65047078219637   -1.72102790191475
H          -3.50090459434154   -0.10820201476307   -1.79440659094959
O          -1.06062137551827   -1.89403725991060   -1.67356126598068
H          -0.91115237140266   -2.13321270845055   -0.75150986683480
H          -0.20585263086794   -1.46940383218320   -1.96352519372049
O          -0.66043870303447    2.37186704174562    1.35421912332571
H          -0.21530091488861    2.00769607238133    2.14223516326635
H           0.04795071169108    2.24203305119099    0.67410933852548
O          -2.09473873749703    0.39841648887354    0.87752985877103
H          -2.35272201023227    0.38071176721892   -0.13247945617696
H          -1.43456511918169   -0.36498249845859    1.00975983947203
H          -1.54796056185326    1.30773300667812    1.07248953113832
N           1.19525775621734   -0.55567854977853   -2.09108762615293
H           1.87959217679537   -0.71852963695660   -2.81880415051159
H           1.63405623970311   -0.75649282583003   -1.19300055030157
H           0.98568606512482    0.43616344735662   -2.07332219721423
