    26
        -50.46942321  Gyration_radius:  2.44424470557 Dipole_moment: 5.032
 S           0.28953489690456   -0.44229804619761   -1.04241039639689
O          -0.51296744341696   -0.35827378765189   -2.35458365608145
O           1.37607609173310   -1.39366257492793   -1.20425210684101
O           0.79093868930863    0.89389400480428   -0.73381590057033
O          -0.62834854540267   -0.91067521171319    0.00721927537817
O          -1.86742203655734    1.05105931256645    1.16091345517022
H          -2.69586093848120    0.71971123642074    1.51178806308722
H          -1.40753182830540    0.27607274171092    0.75934041422433
O           1.01930101481484    0.89093825683018    1.86390391737600
H           1.01212047232403    1.08316246906645    0.89840844098249
H           0.09853807529462    1.01024979337082    2.12562771204281
O          -0.21936567501471   -3.05485471899219    1.47822630301157
H          -0.27762724676417   -3.82107812066890    0.90480860211420
H          -0.53573033273329   -2.29325823445089    0.93916274386725
O           0.03855620604794    3.04610754484357   -2.13215854260183
H           0.43971692433162    2.35376517023493   -1.56942406302507
H           0.43003010868672    2.94255434472673   -3.00095470255525
O          -2.10035105220475    1.50442185951112   -1.59716561314072
H          -2.09837417370390    1.49671269857596   -0.62217448568481
H          -1.51916032042068    2.25297035892235   -1.84627489551362
H          -1.22654952946957    0.33070776114297   -2.13951532228316
N           1.95124322472973   -1.52558624560050    1.33981821984164
H           1.25149293492858   -2.25228544949455    1.62633287449514
H           1.61418071924778   -0.57613027192764    1.69078722870199
H           2.89098430681739   -1.73403569658380    1.66054985624205
H           1.88657544729484   -1.49018922455193    0.27584257813592
