    26
        -50.46999760  Gyration_radius:  2.46272926983 Dipole_moment: 2.974
 S          -1.96511237189113   -0.91444363192492   -0.45464281008075
O          -2.25513309969551   -0.42046276689267   -1.77888360882749
O          -0.89129104549991   -1.87232013175876   -0.37699288471630
O          -1.76575335246913    0.16815810751749    0.52502732547118
O          -3.29901889995085   -1.64621307191976    0.01939607286656
H          -3.81778381860188   -1.60764832258723   -0.77695477826158
H          -1.12999529365688    1.57730204129105   -0.02784347617528
O          -0.64568922128269    2.37292488900872   -0.35666064831930
H          -1.30541916196380    3.05482186364648   -0.48801312719612
O           2.37672806564882   -0.21006202404191   -0.84315031268259
H           1.54381469974637   -0.05771270945334   -1.36426642523244
H           3.08139042104771   -0.27456764132596   -1.48879148980943
O           0.22286310809233    0.47546919595888   -2.17106545945687
H          -0.62972833172303    0.00325076402534   -2.16438308860038
H           0.02790781201046    1.33168564735978   -1.75914380941748
O           1.44296654282825   -2.17458338251413    0.83099641157380
H           1.97192095464431   -1.62089487184011    0.22829954057095
H           0.60973134639546   -2.32584108391828    0.34201911430032
O           1.70413017383385    1.75132904345730    0.96535345160349
H           2.12616744129500    1.15712068582243    0.31738748294462
H           0.97412904990718    2.18023808975294    0.48879108649825
H           0.91416601636595    0.64568123968675    1.82490434294079
N           0.32032107522815   -0.18937016026877    2.10348846455322
H           0.81784900572729   -1.06737214603810    1.73723529866653
H          -0.58285643706303   -0.10857847087793    1.56592471331525
H           0.15369531102787   -0.22791116216143    3.10196863346872
