    26
        -50.44734857  Gyration_radius:  2.5065605959 Dipole_moment: 4.970
 S           0.06056199787724   -0.70710799213462   -1.86366930533526
O           0.40576041153763   -2.09835746385851   -1.75752202659517
O          -0.50575700268231   -0.24884331223254   -3.08050504264223
O          -0.90492316579315   -0.34739498995076   -0.70800569647883
O           1.33285120339071    0.13750034561353   -1.58415993962508
H           1.56248746222916    0.15278902077453   -0.60904364412901
H          -0.67989407126415   -0.79767347772748    0.16289902358043
O           1.76983321865952    0.38272909581972    0.93800724362883
H           2.62019769392630    0.79613137897577    1.09536279678747
O          -1.84510721640447    0.75351596369942    2.32135118713612
H          -1.48078043113111   -0.11849515801118    2.11419411936275
H          -1.87655217403057    0.82391977591063    3.27680131995267
O          -0.19078502999505   -1.39686595516958    1.54581448604361
H           0.65814050042766   -0.92709529592690    1.58666850964223
H           0.00868307974001   -2.32359286368235    1.28383180196387
O           0.47589132252330   -3.67224781231592    0.37317758351078
H           0.39833351897604   -3.22049407885289   -0.49317604587487
H           1.28789490175403   -4.18011420089969    0.33749538620162
O           0.00131048817581    2.19044369073665    0.87052008078402
H          -0.26414161933994    2.26814598570447   -0.08390661906638
H          -0.76779235649065    1.80753978200855    1.33111361678859
H           1.07437147881451    1.14713920619868    0.96362070958975
N          -0.70297750459176    2.38029779260717   -1.73866397886327
H          -1.66129635083017    2.69991894003556   -1.81458364959277
H          -0.65075505419348    1.47612248620874   -2.19916596505358
H          -0.12555533129572    3.02208913647749   -2.26845595177440
