    26
        -50.44233862  Gyration_radius:  2.52485070244 Dipole_moment: 2.695
 S           1.20672191834130   -0.84136263417074   -1.59174972879963
O           0.18589940505548    0.17134998931201   -1.45649255820182
O           2.30409476551044   -0.55077094472760   -2.43398884966432
O           1.74322631311405   -1.24340935156733   -0.20921770046601
O           0.48707456802039   -2.14207884669958   -2.09157121517976
H          -0.47605757887185   -2.05093124605975   -1.93490238215626
H           1.06849140504548   -1.20668843743249    0.55069539864590
O           0.14755987373069   -1.21494251897104    1.76608992504752
H           0.21856947384471   -2.02564637941620    2.27260965560755
O           0.57419861251332    1.62070684894383    1.80852212355990
H           0.60264011720851    0.67564718803876    1.99853429846455
H           1.23955396502282    1.76824806894536    1.10325259792575
O          -1.97496286814120   -1.21872552666568   -1.59725013984295
H          -2.56717878055394   -0.98475491360351   -2.31490729314806
H          -1.33912178908366   -0.47132805357439   -1.49811213407889
O          -1.95714749086114    1.77938468909494    1.00255398658546
H          -0.99243099584505    1.79302505693655    1.22481631845758
H          -2.37733512051854    2.35768551535456    1.64071938083087
O          -2.30943292803251   -0.84718016487500    1.14129745126282
H          -2.39791782517841   -1.12982074712159    0.21991245353558
H          -0.83679745238727   -1.09313414104031    1.54291518348322
H          -2.30113364656320    0.14074980224468    1.10932435299518
N           2.33911801781078    1.72846656754308   -0.30535759406013
H           2.92621116086790    0.90363589201911   -0.33759474306443
H           2.89173233718870    2.51068912138999   -0.63517621553471
H           1.59442453274033    1.57118515612162   -0.97492256221249
