    26
        -50.44835616  Gyration_radius:  2.64704645242 Dipole_moment: 5.195
 S           1.42917939096271    0.42909432514146    0.27529617761826
O           1.59356136563548    0.28801010282841   -1.14966960718441
O           0.46993672477944    1.39714256038077    0.69940582049082
O           1.08439832419806   -0.96019653040064    0.86889408683898
O           2.78482716778739    0.71350494193550    0.92690988850373
H           3.43769001797796    0.08503031737601    0.44084140392231
H           0.16271903373740   -1.28073117328520    0.57098956919186
O          -1.19858666504044   -1.77562655311137    0.11186447470118
H          -1.39064509728264   -2.61695614042339    0.53027964250816
O          -2.85742576468749    1.45938848411584   -1.21083548939945
H          -2.07798726643948    1.00719202157658   -1.60457147405066
H          -3.54325485596603    1.43252307892704   -1.87963936796898
O          -0.90008192286825   -0.11823547874246   -2.16384761396011
H          -1.07581366312373   -0.88673586657240   -1.60611476118978
H           0.00849203309346    0.14990639263845   -1.95132797119135
O          -1.47111224620679    1.46847648282921    2.54779172828953
H          -1.81362097829691    2.36339465931338    2.50033117735052
H          -0.70468681039000    1.45069366805813    1.94396984942704
O          -2.93287153870200   -0.12981129047004    0.95800154999449
H          -1.91241133579320   -1.12035323051525    0.46650791008197
H          -2.48115930484956    0.38949820245787    1.65809244315656
H          -3.02227662395784    0.49333855949304    0.20389831014297
N           4.06530042582007   -0.91061267747382   -0.57938094571657
H           3.33496589321019   -0.74242379110406   -1.26659301277766
H           4.04408743134982   -1.88306212817634   -0.30361344888394
H           4.96677625505166   -0.70244895677452   -0.98748034987000
