    26
        -50.44264264  Gyration_radius:  2.6307376261 Dipole_moment: 8.069
 S           2.83150509031293    0.20265767138055   -0.17352508756332
O           1.99029746143322    1.37531924662743   -0.15757079648430
O           4.19256613090638    0.36979687747939    0.18759986014183
O           2.14885599813076   -0.84005827679967    0.80999284010403
O           2.69862160983859   -0.50971231102644   -1.51324895486107
H           1.63599361668876   -0.54788966822863   -1.69533599876386
H           1.48210581164221   -0.37784765968510    1.37078387534843
O           0.17529599518293    0.16591481083211    2.26963518861439
H           0.47331463995510    0.46775845752082    3.12875783584059
O          -2.99992303918523   -0.93908939317182   -0.14820940729995
H          -3.53887648611346   -0.86927477291927    0.64172011690502
H          -2.22017237699046   -1.46074369168812    0.10074735941762
O          -0.59079993934947   -1.96507182531126    0.72770785438842
H           0.20696874291384   -2.49959703076362    0.73547448090106
H          -0.42790441307025   -1.25606689767084    1.37362033480392
O          -1.95644471448945    1.32769508396800   -1.19881052152868
H          -2.39272892248051    0.51959802207749   -0.85414210924884
H          -2.64895516196291    1.89282400897475   -1.54305899858396
O          -0.32027734536461    2.23157016579924    0.82696975269475
H          -0.93380905385410    2.00056708055837    0.10658768821737
H          -0.08810664214751    0.99568645396098    1.75422502908259
H           0.56921949694316    2.16699368092630    0.42915023325735
N           0.19351681644307   -0.60222458519805   -1.79040567811650
H          -0.20432083045144    0.33089588125258   -1.74819058078973
H          -0.16057221144750   -1.13246075605911   -0.99599324240481
H          -0.11537029172622   -1.04724056795115   -2.64448107110623
