    26
        -50.46906622  Gyration_radius:  2.46932511943 Dipole_moment: 4.265
 S          -0.67375476902236   -0.05982849407757   -2.06483864820539
O           0.67133122417703   -0.55559549768348   -1.88861843104454
O          -1.50987415122755   -0.36529649313294   -0.90024519963035
O          -0.76378659917415    1.32588627783291   -2.46203612832808
O          -1.30079845779693   -0.88951499989493   -3.26707189907630
H          -1.91232537314364   -0.25465889828908   -3.62494920194688
H           0.14826076269644    1.93321504447335   -1.26617311690514
O           0.64789790256658    2.28601092985876   -0.49439554578994
H           1.15982834926791    3.02765053616457   -0.82248575195529
O          -1.63888600991032    1.63006760213160    0.96670664140970
H          -0.90792455089617    2.16491360234682    0.62650820787044
H          -1.78933049124715    0.96141368628510    0.27705778101706
O           1.90140616775306   -1.82876657342729   -0.00841686809482
H           1.47136679618001   -1.34677717913014   -0.76124594135285
H           2.64011866762103   -2.30767059747103   -0.38592244367902
O          -0.35126913757663    0.15666803720369    2.76402037959935
H          -0.51948838448496   -1.03330564833231    1.90828974809876
H          -0.94066275596684    0.79203557739762    2.29041122079718
O           1.87327485702938    0.64143275340424    1.38750046942589
H           2.05863624099756   -0.19520069391389    0.93839494536760
H           1.51432322749106    1.23623434941217    0.70793463145033
H           0.55755335887872    0.41735797932333    2.48397507903619
N          -0.57876110573388   -1.78944417156373    1.10590213579444
H          -1.13672881114582   -2.59116223356563    1.37487326786116
H           0.38133404948306   -2.06129619072450    0.84194685948253
H          -1.00174099681605   -1.29436869462997    0.27287781878956
