    26
        -50.46942324  Gyration_radius:  2.44398720374 Dipole_moment: 5.027
 S           0.69962260859717    0.82590281350814    0.44289347236041
O           1.39411491880295    1.97465997822116   -0.31288641515583
O           1.33163837154809   -0.42687638218825    0.03903808936654
O           0.82504691718403    1.04749828911683    1.87364484468124
O          -0.72050245541844    0.84108160433802    0.06030500492116
O          -2.70730214982603    1.04115649825597    1.77535216287408
H          -2.66982315248822    1.91479944735917    2.16863529713869
H          -2.06262207737167    1.05595505737603    1.03042033276893
O           3.12343333835957   -0.53364496509440   -1.94372179461660
H           2.52962572168318   -0.64210635550022   -1.17397008318992
H           3.90077551974415   -0.07727655796762   -1.61772857098128
O          -0.54457756559789   -2.20980686407411    0.35743639522814
H          -1.08057830849027   -2.04894826961453   -0.42833905403975
H           0.27982915561221   -1.70085083501457    0.18302085051015
O          -1.17246969713675   -0.58879012628792   -2.05298077305153
H          -1.04790863671273   -0.04572292126972   -1.23875916935137
H          -1.95605152534000   -0.24688129964207   -2.48692623497008
O           1.04576719885306    1.01678930792456   -2.66371631427912
H           1.85001435094783    0.45715410340166   -2.67500313573255
H           0.30209003007378    0.38911459138118   -2.60444761979479
H           1.26064837984879    1.71842631053526   -1.28563949639560
N          -0.92307505247446   -0.77404904676774    2.54331923803793
H          -0.12555006859062   -0.07799457555167    2.41388317266628
H          -1.79619206540291   -0.20031363592631    2.45165989056433
H          -0.87187736363173   -1.44460251275860    1.71504345100130
H          -0.86407639274862   -1.26467366375733    3.42946644941853
