    26
        -50.47468855  Gyration_radius:  2.41767184709 Dipole_moment: 2.067
 S          -1.12959853143227    0.40677471928236    1.23697072233615
O          -0.90579447134763    1.34949043071213    0.13739359150479
O          -2.24684985287056   -0.46030994997104    0.99315450887168
O           0.10685096176461   -0.33889529886623    1.51720088175766
O          -1.42722368148578    1.26259492795262    2.51147016045996
H          -0.58914799313188    1.73102854714411    2.65873508583176
H           0.49454713717693   -1.52518919177782    0.48846097801966
O           0.72120301332229   -2.22738945415466   -0.17047052971726
H           1.15630067455827   -2.92470499431031    0.32227549585419
O           1.24330295051277    1.70311052157872    2.62181514916832
H           1.00771217215476    0.84493120890154    2.20081666814224
H           1.63454960493175    1.49510973461750    3.47254005455960
O          -1.87411618490030   -2.04710562787582   -1.11995492927695
H          -2.19917737993931   -1.58253532195021   -0.32073552662676
H          -1.01177839683396   -2.41192083101765   -0.86057487032815
O           1.71408171654613    1.68478224077492   -0.30191808265759
H           0.74960946599687    1.66471582750632   -0.14813082274869
H           2.09511642569276    1.91166824816537    0.55019564222970
O           1.63317778892415   -0.39455545987153   -2.03019564442297
H           0.12168095382072   -0.05115070428540   -2.32047847607661
H           1.87531463981136    0.36249866395073   -1.45979304938794
H           1.50976754064601   -1.14949788919098   -1.42959264278469
N          -0.92586345738514    0.14184600410407   -2.20911014160415
H          -1.01967720104050    0.74632426568118   -1.35370349606032
H          -1.40548265081983   -0.77623086291099   -1.95964464883227
H          -1.32850525467437    0.58461022589447   -3.02672606819574
