    26
        -50.47468850  Gyration_radius:  2.41766794737 Dipole_moment: 2.069
 S          -1.04180337767436    1.14585649064183    0.75827052723424
O          -0.43610877220603    1.47845676012880   -0.53410075251100
O          -2.35270350075904    0.57925880920613    0.61650521847056
O          -0.13707428044172    0.27761985133054    1.52717904977470
O          -1.15721453049548    2.48329860675420    1.56014095208029
H          -0.22910811700873    2.73419049207660    1.69869602134343
H          -0.06083283477469   -1.27598078684345    1.08455704196282
O          -0.01437225700723   -2.21493894917162    0.77658516881839
H           0.13251280506268   -2.74564804245347    1.56089919267629
O          -2.32672501739472   -1.75527583517688   -0.67639491574132
H          -2.55331268953523   -0.94367662525286   -0.17627276978950
H          -1.65089540282136   -2.19802859587934   -0.13675765670067
O           2.18114599796663    0.91283655230598   -0.52531569086561
H           1.25135822674570    1.20861088132893   -0.57244289082044
H           2.54032849097542    1.35150625239692    0.25010613008293
O           1.49453610539609    2.21438566502847    2.04427166002355
H           1.03316945110488    1.35430439882105    1.91547869394118
H           1.72632792787794    2.26727733837155    2.97351999766437
O           1.58780220359635   -1.58191449597746   -1.38711553970846
H           2.00976741305857   -0.75271987599352   -1.08468213086536
H           1.17982470851126   -1.97474606308288   -0.59646737838495
H           0.29495569439454   -0.99993441554496   -2.07770531917903
N          -0.64174655566111   -0.51192942186727   -2.25486588297558
H          -0.60980273957881    0.38456079265508   -1.70606906899317
H          -1.40830366031165   -1.09458998540139   -1.79870275124655
H          -0.81172529896177   -0.34277978843349   -3.23931692627078
