    26
        -50.46788079  Gyration_radius:  2.39865084318 Dipole_moment: 5.649
 S          -1.18396109144039    0.04444361608197    1.36234343068674
O           0.20338487510326   -0.38476609234570    1.22382416541796
O          -1.42976834967412    0.70436899351645    2.61605332615788
O          -1.54752633199898    0.89562904612225    0.20496205992824
O          -2.08129292700866   -1.22817292929687    1.27168735704148
H          -1.79009892931246   -1.72073192190095    0.46735185213453
H          -0.29646174402015    1.73356815832688    0.04704227505747
O          -1.16997022492692   -2.57063961543793   -0.84445173689762
H          -1.36176416813312   -3.50074391185492   -0.71371346453555
O           0.98720033193934    1.78667996073033    2.66961386300328
H           0.05181602694961    1.50443020789671    2.80061841303756
H           1.48913214330224    0.97588036387160    2.79445330088357
O          -0.99055173785605   -0.12145511962521   -2.16815531761019
H          -1.18009723582314   -1.06019738232018   -2.04386528053609
H          -1.33000850047178    0.30424461348338   -1.35018924910835
O           1.55309542429702    0.40778232857132   -1.90118939102994
H           1.91330555043039    0.65029788360030   -2.75514965087999
H           0.58953878266550    0.18519442348999   -2.05871576855462
O           1.34969155814400   -2.03720475268603   -0.43807126047901
H           1.04266522603628   -1.48691149066745    0.31620588071989
H          -0.17995367424830   -2.46599254832019   -0.73184179105079
H           1.68302767751158   -1.38717701514999   -1.07066956130533
N           0.70373574094198    2.12908141385586    0.05507114588567
H           0.72829287701487    3.09737704472142   -0.24759417096368
H           1.25462373807043    1.51530970047628   -0.57909934253769
H           0.99194497246278    2.02970501485676    1.07347892553778
