    26
        -50.45524950  Gyration_radius:  2.46720117795 Dipole_moment: 4.699
 S           1.88055881990272    0.17203106509035   -0.51623323431709
O           2.74257811185382   -0.96961402375273   -0.39443028327308
O           0.77833949747216   -0.01774224304940   -1.44751987236970
O           1.41218294625756    0.72295206261971    0.75191689448113
O           2.77323099674280    1.34619038307812   -1.13323849022942
H           3.39217449722355    0.86211854428823   -1.66996320501423
H           0.38115197237222   -0.14406745334360    1.63315427330528
O          -0.27217934388129   -0.71415102762211    2.10788552274841
H          -0.09404253170470   -0.61485842575383    3.04399874255699
O           0.65077867127925   -2.57680128739285    0.19999730110426
H           0.36242494828407   -2.13005238739038    1.00810738833193
H           1.45328540220253   -2.11503885053734   -0.09401518146314
O          -1.70899313441889   -2.49950884761906   -1.04765540660088
H          -2.03317515576579   -3.39553142801153   -0.94852315259267
H          -0.76891256718879   -2.51824709344817   -0.75506926801923
O          -1.37314236330715    1.21912770377806   -1.15204839560442
H          -0.98488599663826    2.01661059751098   -0.58796017904118
H          -0.52614739718464    0.68286352809158   -1.38987326590991
O          -2.40655741203573   -0.42418320989428    0.42046629271677
H          -2.30011836345915   -1.23180668945100   -0.14239587113387
H          -1.74246027312193   -0.52452702631821    1.12731887991516
H          -1.89510283832454    0.57013763953778   -0.49353107061122
N          -0.12633867178458    2.95742866552365    0.22689277882323
H           0.34745166457026    3.66578140270869   -0.31807706828850
H           0.57327453146763    2.26568031701557    0.51903944034407
H          -0.51537601078814    3.39520807431994    1.05175642014420
