    26
        -50.45168069  Gyration_radius:  2.42507428091 Dipole_moment: 7.525
 S          -1.35930299232069    1.78249822209179   -0.51844026076813
O          -0.92988845527729    1.52456048591280    0.84705939030103
O          -1.32413387197417    3.14113957420400   -0.94209065645086
O          -0.29374962839331    0.96148347439379   -1.43329653274651
O          -2.59835839750115    1.04076700397931   -0.80169145749618
H          -2.27812587664828   -0.09975472225166   -0.06040240391030
H           0.61927448452283    1.16675973769541   -1.11120914222889
O           2.14917880616069    1.25539024524592   -0.51249630983811
H           2.56351262525416    2.08203315689876   -0.76389468354317
O          -0.56302001620212   -1.62605825531599   -1.90464206487379
H          -0.50115825090738   -0.64295503654579   -1.85244375051888
H          -0.89801137316387   -1.82981700093612   -2.77887387039008
O           0.49801161433801   -1.29874901605060    1.87986416205280
H           1.03701444049103   -1.42387079181722    1.05650624403134
H           0.76438325077818   -1.99177686534727    2.48447681610544
O           1.81640152238511   -1.52853382268004   -0.39814794715088
H           1.12506663019221   -1.70882217721143   -1.05076299696264
H           2.12067863853087   -0.62434550604572   -0.56606376992760
O           1.41446888426438    1.36209064101525    1.96114076279723
H           0.51467208271587    1.64130583705568    1.68097694201800
H           1.27849598392668    0.43925355863420    2.22126634807873
H           1.96308741699918    1.32271538273987    0.47719535346758
N          -1.88625488088152   -1.03703770184818    0.42751177459990
H          -2.62272439107954   -1.54161919878918    0.90930438166277
H          -1.13517361074554   -0.77135157370998    1.08652885824341
H          -1.47434461538469   -1.59530565130712   -0.33737519658081
