    26
        -50.45834532  Gyration_radius:  2.44150810981 Dipole_moment: 6.106
 S           1.23275517565970    1.38978195893835   -0.42898297272331
O          -0.19354792910277    1.68662004539711   -0.69388945704293
O           1.80783507271576    2.26315775660226    0.55503664994079
O           1.22411782831156   -0.07953371538253    0.15565349643639
O           1.97113409115925    1.23770449572389   -1.67091266701454
H           0.96024022222318    0.33094523288130   -2.48932344486678
H           0.65501367905029   -0.12167422989290    0.98842428372409
O          -0.33722689788313   -0.33971121697996    2.18831908257542
H          -0.13476848105263    0.50983307605344    2.63533095328143
O          -1.11979116306932   -2.03526963626408   -1.33086423103910
H          -0.54303586710050   -2.29685652609180   -0.56323018988516
H          -1.58254933884926   -2.83130166065595   -1.59601901544038
O           0.40809495103491   -2.65793236738721    0.72771204966860
H           1.20083656854754   -2.16241392144641    0.49154530953541
H           0.03938274467962   -2.18180152919814    1.48570363935004
O           0.48802972512795    2.10302926757486    2.84125410946645
H           0.94239726988312    2.26416306466671    1.98397478869459
H           1.11094858021123    2.36874895340985    3.51955723995743
O          -2.15200574320586    0.11244762840135    0.30264380532247
H          -1.58368337543667    0.84105843840807   -0.00971777755743
H          -1.99169437471296   -0.62764135593638   -0.29856793555435
H          -1.17499555679162   -0.18234549863780    1.69388717474222
N          -0.07165207031916    0.11067562334604   -2.64808767552225
H          -0.37721820680844    0.28029951378602   -3.59995831449277
H          -0.42326748375250    0.84360438526526   -1.93684070892883
H          -0.35534940052076   -0.82558779258008   -2.30264820262596
