    26
        -50.45834534  Gyration_radius:  2.44161631616 Dipole_moment: 6.100
 S           0.35685003431965   -1.87256605459822    0.01978938133723
O          -0.23046543034312   -1.31418528552693    1.25905557364826
O          -0.49437049925062   -2.84268461456613   -0.60949672558188
O           0.48894568291203   -0.62724907327620   -0.94586950933525
O           1.73996451101217   -2.26398356803096    0.23102451859190
H           2.26828890427268   -1.00459519429844    1.03495511844757
H          -0.41494813892458   -0.20508384791739   -1.09991666471811
O          -1.73539496601577    0.63128110981490   -1.27098141416829
H          -2.33310723176240   -0.14439917033826   -1.32925115408408
O           0.69946166017688    1.98463239867685   -1.82541169667039
H           1.05829227848359    1.10719260188586   -2.00165211757711
H          -0.26085549074703    1.86531343141806   -1.85117040504091
O          -2.84402387534012   -1.78600020813024   -1.20672070551946
H          -3.19244577047178   -2.31473517103499   -1.92626231398280
H          -2.02249996870769   -2.24099788743671   -0.91439048201821
O           1.33602889078051    2.20528758525277    0.72517057398841
H           1.64840808305616    3.09991350264709    0.86716564927615
H           1.11365432265066    2.14332903416861   -0.24288885581952
O          -1.30034106454920    1.16797842092025    1.29363610353162
H          -0.45484076591644    1.63511445721476    1.25197832036446
H          -1.80828992342258    0.94872870354846   -0.34097225757903
H          -1.08152600159294    0.22457395734007    1.41030061740269
N           1.99401548439948   -0.24323006049919    1.73059378918814
H           0.97472793005769   -0.58585974415531    1.83044574100981
H           1.96827699081176    0.70825670101185    1.31776286285351
H           2.52619435410658   -0.27603202410284    2.59310606246901
