    26
        -50.46194839  Gyration_radius:  2.51147534754 Dipole_moment: 4.757
 S           0.37414919924297    0.51183541447476   -2.02483561528429
O           0.40489766501772   -0.92223380828171   -2.29267524661695
O          -0.83141174422830    0.91383986558081   -1.33255760791805
O           1.59800977560740    0.96339817204628   -1.38700549427132
O           0.31961677441364    1.23185111997186   -3.43585714392204
H           1.18053150864874    1.08026755235587   -3.81463958934658
H           1.72838400891496   -0.33117908495774   -0.32062610185932
O           1.79511009723792   -1.07413090841364    0.31283866198317
H           2.12520765624961   -1.81321865731333   -0.20173977830721
O          -0.79249406902436    2.05209805825803    1.14888148285260
H           0.17004591845922    2.15091306027329    1.28666284489803
H          -0.88750598619343    1.78222567283420    0.22102950367016
O           1.92646648813756    1.88519045704347    1.17013528322056
H           2.18830107642553    1.03082247543527    1.52398819581940
H           1.92690110016187    1.77112816704026    0.20555691911578
O          -1.57111166078622    0.05973587045038    2.67193165173137
H          -1.39076906289291    0.33313744444131    3.57172119241614
H          -1.34120377285665    0.83959872475076    2.09926964416195
O          -0.49334167302732   -2.00545614164949    1.44105900418147
H          -1.22928950442773   -1.81728789050467    0.16863360007609
H           0.39589546418392   -1.68379123817100    1.18986590210910
H          -0.88752097596885   -1.30081002322409    2.01096535137151
N          -1.62747144680048   -1.52249264607404   -0.81300712573051
H          -2.43846867681101   -2.06229623854224   -1.09330350702299
H          -0.83299807202223   -1.56831195701602   -1.50700433045054
H          -1.80993009765553   -0.50483346078288   -0.79928770689304
