    26
        -50.46194837  Gyration_radius:  2.51149655397 Dipole_moment: 4.758
 S          -0.08347843719103    1.08881550990686   -1.81922604088570
O           0.11035481337318    2.28825911729755   -1.01115029446547
O           0.92672743700274    0.08533177611645   -1.56085619730247
O          -1.44476167716444    0.59273264039212   -1.72253165042302
O           0.12142913876405    1.52578532940678   -3.32900581382720
H          -0.63608014263759    2.06918080270621   -3.52518554593700
H          -1.59346877733809    0.81037957709533   -0.06104862562236
O          -1.67458443111127    0.91908618078942    0.90813879242081
H          -1.81757523634401    1.85778410113094    1.04385856112669
O          -2.31713407220969   -1.72190699826254   -0.54862090288765
H          -2.52747769444844   -1.30440994142272    0.29112850005518
H          -2.13864971835608   -0.98780746166306   -1.15911150765679
O           0.32341122325083   -2.39085840406532   -0.58133817122558
H           0.60831726099243   -1.59163246321144   -1.05337518193424
H          -0.65322848129687   -2.35366196175096   -0.58669970009191
O           1.07203610714151   -2.17951131478480    1.92669690813213
H           0.84810884196229   -2.29374377338731    0.96450611809527
H           0.70829208617046   -2.94460940242076    2.37301850790663
O           0.48519261712713    0.33546657053608    2.44830465688370
H           1.39843645679869    0.91184587454310    1.43348031717361
H          -0.38104076754139    0.46372783193974    2.01183886681083
H           0.68569382939638   -0.62974654689779    2.37856376798266
N           1.91865913961272    1.28621346815056    0.54001062536110
H           1.26626173190941    1.95392734231049    0.04654473275870
H           1.96834863575248    0.52098086535348   -0.15357064999338
H           2.82621012638969    1.68837130018917    0.74562992758155
