    26
        -50.46788069  Gyration_radius:  2.39858048725 Dipole_moment: 5.649
 S          -0.03589893436829   -1.49819484146831    1.00708019505792
O           0.68882055662967   -1.08425600132635   -0.18945363231167
O           0.78265881256578   -2.26971271796510    1.90279887099029
O          -0.60778810371986   -0.30115254951500    1.66770590679406
O          -1.24652490702862   -2.36721554493758    0.54639463020539
H          -1.70500291980460   -1.85689271374184   -0.16334864937454
H           0.53071744904389    0.68710833876079    1.53043930318832
O          -2.36949818359823   -0.99341396093305   -1.44416268666605
H          -2.81249537382693   -1.61494131041330   -2.02421950599552
O          -1.99790319623928    1.30278126353446    0.09555608233770
H          -1.59228597436492    0.73187140282404    0.78479223798478
H          -2.44592901454918    0.68248379178152   -0.49362765115581
O           0.17172557716867    2.28010354541423   -0.98095690169049
H          -0.69164331630623    1.94415681638681   -0.60068992798022
H           0.03454116577242    3.20861615677825   -1.17282475457457
O           2.96813614653879   -0.90360000877600    1.29090685879494
H           2.26587237888175   -1.48729188204014    1.66206790222417
H           3.06130917695091   -1.20819858565676    0.38344163145730
O          -0.13424665764433   -0.13411331992979   -2.47552283866233
H          -1.56140473694094   -0.66865973356897   -1.93946376029234
H           0.00456820826643    0.80446856110875   -2.29194748073250
H           0.30832758432181   -0.58322363257776   -1.72159873237966
N           1.40537934389092    1.23852640196761    1.23387245436074
H           1.64718789520749    1.95407813098892    1.91158193027665
H           1.17750730088759    1.65061896557244    0.30623109328621
H           2.15386970222160    0.48605342771077    1.17494742488242
