    26
        -50.46194837  Gyration_radius:  2.51145392359 Dipole_moment: 4.760
 S           2.03107436134245    0.58009289826178   -0.20061977344603
O           2.34556959159632   -0.51852598218775    0.70674883069457
O           1.23237216675728    0.14809594008467   -1.32741270907257
O           1.47915785830776    1.71971475928370    0.51014409934146
O           3.40986334873272    1.06645696293312   -0.81274408924802
H           3.86146490437825    1.48177043320381   -0.08391775242932
H           0.46806251866286    0.82684835538755    1.51546351368375
O          -0.13431293996591    0.31001243738369    2.08794828508275
H           0.42802047532247   -0.06738604542251    2.76721482816767
O          -1.27271060117674    1.11945028376652   -1.81268177853550
H          -1.33624416607024    1.80751917640658   -1.12147733509291
H          -0.34737155062350    0.82608416684796   -1.79156212361198
O          -2.78946632491900   -0.87625581273659   -1.03053230895773
H          -3.68016252746517   -0.52704840928419   -0.99050981966195
H          -2.22513734375025   -0.14170274767821   -1.39245948543383
O          -1.07151008421209    2.70796525554210    0.39119081155237
H          -0.10679293916966    2.59511543893492    0.38430300999454
H          -1.37570478244204    2.22024889494428    1.16147387988809
O          -1.41197080421206   -1.82771819335288    1.00382217323687
H          -2.03350264483324   -1.51590982968963    0.30155774408956
H          -0.20902838354624   -2.17994489524954    0.21342101034362
H          -1.10080152436193   -1.02338782481746    1.46591143689626
N           0.72788796699031   -2.22880047954527   -0.36009143191631
H           1.48421849106578   -1.78006702946902    0.22439899533237
H           0.66739473673304   -1.55581542598475   -1.14269709256653
H           0.95963018686970   -3.16681228757162   -0.66689291833410
