    26
        -50.46194850  Gyration_radius:  2.51148703981 Dipole_moment: 4.758
 S           0.74603217141017    1.50208642541165    1.30002486778629
O           2.02983225944573    0.81298827743738    1.22157233397124
O           0.20676724366052    1.80603403146552   -0.00800778883163
O          -0.18244443729975    0.80562348210805    2.17264444389199
O           1.02902800983874    2.90356287532700    1.98434519876289
H           1.23866379532957    2.68955305103355    2.88873150179384
H           0.17890311580960   -0.74074278648790    1.61761000389066
O           0.37400864651469   -1.63952572334286    1.28306974046616
H           1.20875899944052   -1.88210976085714    1.68811846594127
O          -1.39316976635722   -1.07063227934094   -2.55354338613985
H          -1.70130184696661   -0.32083212024614   -1.97747501219020
H          -2.17353723786976   -1.59123920560435   -2.74559887827944
O          -2.48495730761526   -0.50598659573323    1.48339894113580
H          -2.06388765524215   -1.36797459957947    1.42532477903973
H          -1.82034211098457    0.07392687542243    1.89013844978451
O          -2.17507053073750    0.80128897975746   -0.88626500032357
H          -1.39431726201124    1.30525587060733   -0.60481469303062
H          -2.48665385967315    0.34537040670865   -0.07982962230247
O           0.79731829830736   -1.94863015269308   -1.38207667995211
H           0.55362648580436   -1.97805645919368   -0.43494120230927
H          -0.03515338001647   -1.73818872416693   -1.87138395847863
H           1.52390084254032   -0.65866773399482   -1.44478664787340
N           1.93991725337172    0.35152372810232   -1.31984154620183
H           2.26401727506616    0.44225876605001   -0.31895080434019
H           1.15967832184119    1.02985736968712   -1.32978933384576
H           2.66038269639552    0.57325602212877   -1.99767413238473
