    26
        -50.45283495  Gyration_radius:  2.46198327371 Dipole_moment: 8.021
 S           2.06552923475776   -0.24584134868681    1.24633669219818
O           1.39906402343724   -1.25706163784645    0.37602332560064
O           3.13024426925408   -0.76565582585037    2.02772390309096
O           2.39041470032189    0.93050315287778    0.43612727672755
O           0.91411064137316    0.23431297775005    2.23166623318464
H           0.04738073402384   -0.07798486987115    1.90296359102535
H           1.67780124465713    0.91527236207627   -1.32733448171768
O          -1.54977669994220   -0.53267854295956    1.46211614988330
H          -2.01089895887939   -0.81337647843983    2.25345207921549
O          -1.34659082119686    1.31071465785974   -0.54606883822993
H          -0.80026375088439    2.01339585210772   -0.11724591884343
H          -1.58068529837673    0.72234855351291    0.19224405804294
O          -1.65037812506094   -0.89073125406864   -2.31277609165166
H          -1.83706766747446   -0.06982252397333   -1.83441258724529
H          -2.47308197908021   -1.16996026445668   -2.71697298405415
O           0.48456977158576    2.70611059946652    0.75361577745824
H           1.27069215305307    2.11641849239890    0.65604218201915
H           0.34626167788006    2.77063019513348    1.70041277038471
O          -0.92878158178618   -2.49158018815067   -0.11755093972954
H          -1.10693218496659   -2.10556511256128   -0.99152209971110
H           0.01680552735750   -2.33651108084593    0.05920782581812
H          -1.38944282666205   -1.35520825254347    0.91096229386817
N           0.91568248843595    0.26820525782408   -1.56872057237533
H          -0.00681894812110    0.70769492829223   -1.32087110011892
H           1.09171130814334   -0.52383320569157   -0.82720983128741
H           0.93045106813802   -0.05979643335406   -2.52820870355603
