    26
        -50.44869450  Gyration_radius:  2.53153425495 Dipole_moment: 7.972
 S           0.38011247302947   -2.28582678079642    1.44261811578295
O           1.69278724134212   -1.84052324665906    1.00572635579141
O           0.32349894127531   -2.96852951119855    2.68835369271952
O          -0.47907919967485   -0.90059948000455    1.60110043956445
O          -0.35738846263233   -2.93350944188400    0.34247904601772
H          -0.23843952700284   -2.00194171562063   -0.68626564056424
H           0.11303074463303   -0.14642662050174    1.78997525069491
O           0.68979136765668    1.51257931290213    1.69588261054425
H           0.65547566846584    2.00668588283003    2.51547326972142
O          -2.38264873951763   -0.08874760736321   -0.09073090470252
H          -1.79759643582934   -0.42142592276068    0.62587453327621
H          -3.23425387724807   -0.50754423110615    0.04045958344102
O           0.58587140501909    1.76397728083084   -2.26608912383503
H           1.26546328313971    1.30626531316692   -1.74127468196546
H           1.02490281144840    2.48634374080501   -2.71647699926896
O           1.95206810341948    0.27338657911677   -0.41115763566331
H           2.06916019361318   -0.58086216099123    0.08359595169026
H           1.73670445275619    0.89152466173079    0.30380188955079
O          -1.03573435571474    2.34673958891034   -0.10581192869861
H          -0.54871164854928    2.24525178371097   -0.94406079072528
H          -1.70838623467904    1.64999636786380   -0.11090115389201
H           0.01209068710688    1.91354685969392    1.08620112991914
N          -0.18979913388154   -1.13302112569610   -1.40067276630323
H          -0.08104728837961   -1.43904690029000   -2.36133289373448
H           0.61910169144334   -0.53942718994314   -1.11236079535940
H          -1.06697418120950   -0.60886542675178   -1.27440657418270
