    26
        -50.44869448  Gyration_radius:  2.5315300238 Dipole_moment: 7.972
 S           1.86964171120259   -1.60923232309906   -1.16835507795998
O           0.57687931808331   -2.01590982641236   -1.69332058119819
O           2.98327522286592   -1.75566809286764   -2.03989726316769
O           1.69124708424562   -0.01034086742626   -0.86219676174958
O           2.07586219163657   -2.12173338316994    0.19857260253755
H           0.90305895828833   -1.73464948261481    0.84257539557795
H           1.00758655304095    0.37847805740941   -1.44230151299073
O          -0.33839147271809    1.42772940367991   -1.86759226880791
H          -0.14329095094066    2.10206941164434   -2.51894021707494
O          -1.56907975097948   -0.84897934199086   -0.93388784227208
H          -1.39345824840824   -0.01781838294401   -1.40076990984126
H          -0.87991944490494   -1.45204358157578   -1.32065714714914
O           1.44707487299397    1.05411036735911    1.57767140420321
H           1.67858478891629    0.71963483578323    0.68271044104070
H           2.27513536928727    1.16391942165513    2.04677951783370
O          -2.61619318945677    0.45912416482652    1.23907126753772
H          -2.47754782441121   -0.08212962753133    0.44247121726648
H          -3.54358392662365    0.69808039466648    1.25262236624876
O          -0.76505645874555    2.38950909016695    0.54340186764582
H           0.03703797972378    2.14401628152232    1.02742792212015
H          -0.49330933467440    1.89568700660526   -1.00230661249959
H          -1.46779264537734    1.81140312341983    0.89275615473781
N          -0.01708603247036   -1.26776295996603    1.29340012333291
H          -0.68608678830784   -1.08486450398037    0.51311074118728
H           0.28725756072893   -0.37479365427662    1.70578347264475
H          -0.44184553290024   -1.86783553083839    1.99187073097217
