    26
        -50.44665496  Gyration_radius:  2.4758603992 Dipole_moment: 5.167
 S           0.29654061820584   -1.95870456860825   -0.40789314154697
O           0.37035477877681   -0.69737019887805   -1.09782510194690
O           1.52779655709341   -2.63515879312158   -0.20766713259452
O          -0.42058654792674   -1.71384381877377    0.95736291567795
O          -0.70596349417045   -2.88312951172337   -1.12151769887982
H          -1.54966937267385   -2.35629156741206   -1.13646376408253
H          -0.34967707821186   -0.75558776557090    1.25434587629484
O          -0.37209153994861    0.71424560172061    1.79761910601758
H          -0.22153386129465    0.72758349356363    2.74396324808543
O          -2.78303235666159   -1.37724958564958   -0.73526242998038
H          -2.57970242568462   -0.42375283607893   -0.67229812785901
H          -2.98958597946936   -1.66669342568856    0.15715933517142
O           0.00268244024640    1.96775642456573   -1.54563351211364
H           0.23358392199158    1.02975097220437   -1.62241730781766
H          -0.91887970930659    1.95872629620526   -1.25842025348521
O          -2.31398192495505    1.23389661988828   -0.02999284009738
H          -2.98008404251319    1.82676268121835    0.32175981369951
H          -1.64881667600920    1.09754919384407    0.67189322068671
O           1.45422936592404    2.05820995607972    0.71190667882923
H           2.15333975007437    1.38744765003979    0.51198009309954
H           1.02193845971351    2.23330363518892   -0.15450767218129
H           0.39963093217594    1.27506666622383    1.37414631715657
N           3.01832079483203   -0.01810423567049    0.00145063392521
H           3.27994150033919   -0.74286288234451    0.65902719035881
H           3.80967870118822    0.12742144990799   -0.61417845246136
H           2.26556717813628   -0.40897144111213   -0.55853700398976
