    26
        -50.45390796  Gyration_radius:  2.50147233748 Dipole_moment: 2.125
 S           1.35936675121796   -1.07912918427373    0.34196287386143
O           1.05370278317976    0.29794883874875    0.61686697313430
O           2.04569935645320   -1.30808734165954   -0.89538676402638
O           2.14158160309979   -1.69331334676813    1.50023579061900
O           0.03995094282637   -1.88723477504675    0.36033933813567
H          -0.61108851250535   -1.50204723554580   -0.39642262808040
H           1.71923834303383   -1.32671631024024    2.34771160588257
O          -1.40966544275254   -0.77792561458786   -1.31161744575404
H          -0.77238327057375   -0.48753887863586   -1.99685624356482
O           0.71989208986471   -0.03964371316424   -2.79951042394842
H           0.93074881517088   -0.48925951769280   -3.62065647354391
H           1.31435994058403   -0.43033507332867   -2.12128650326004
O          -1.46149563429698   -0.63713856037427    2.37232051464878
H          -1.19858974428223   -1.27203090332705    1.69155941793597
H          -1.68369411808558    0.17645231629489    1.90130314137789
O           0.89989016611727   -0.82209770893480    3.54810086697288
H          -0.00381708540322   -0.62239347597283    3.19336144895767
H           0.78513078659119   -1.50935365588243    4.20889956663444
O          -1.37121684421483    1.31499333988611    0.25577608926822
H          -0.45343339887642    1.08223811220333    0.50182880256328
H          -1.24952369807594    1.99244656517762   -0.44549552138073
H          -1.59663840172323    0.03507724671285   -0.76280369182549
N          -0.46566377140949    2.67401507529767   -1.91457339199843
H           0.02759384584628    1.87194731137905   -2.29665684752846
H           0.23483731433732    3.34007549946134   -1.61322891964640
H          -0.99478282610788    3.09905101027474   -2.66577156543115
