    26
        -50.45390802  Gyration_radius:  2.5014809426 Dipole_moment: 2.123
 S           1.11164119177519   -0.38908480932817   -1.31963306834920
O           0.89722445276726    0.74784768396359   -0.46707483188679
O           0.35108288878638   -0.38231100415947   -2.53458316390704
O           2.59783909656827   -0.55111105981325   -1.62872146734490
O           0.79277507272383   -1.67205958346819   -0.51558107072303
H          -0.23090174428544   -1.63942806837538   -0.20602646303592
H           3.08651623455613   -0.34729409870982   -0.76233751956640
O          -1.53636979796837   -1.37120325762418    0.26692972205492
H          -1.95523714594203   -0.88203385790174   -0.47148083990963
O          -2.17193061860769    0.10055692985653   -1.90654330861749
H          -2.70194020389824   -0.26807547147851   -2.61654435305056
H          -1.23899943856369    0.03518995447644   -2.20876450437759
O           1.65881532776549   -1.04937519105103    2.07841492864132
H           0.95643286291611   -0.43171226768423    2.31993079070767
H           1.31777078562524   -1.55525748921478    1.32780462968035
O           3.69307396733276   -0.16394873856440    0.63955168560360
H           4.39595959199753   -0.79724030812533    0.80388315318127
H           2.96728876105848   -0.38045578676249    1.27896585706811
O          -0.64571098296026    0.63412190889241    1.68938422688766
H          -1.32500077969278   -0.68003152897905    0.95594698478554
H          -0.00226073641215    0.82103657256466    0.97658750156056
H          -1.37985078555572    1.25821586768504    1.49698825854573
N          -2.52549486346638    2.11805982093036    0.40817631661702
H          -2.13763915096451    3.03156580838416    0.20743453570766
H          -3.50443507437861    2.23997159246236    0.63566454954941
H          -2.47064889115758    1.57405638203579   -0.44837255980977
