    26
        -50.44310765  Gyration_radius:  2.59932970511 Dipole_moment: 7.370
 S          -1.69679770387267    1.04443237352264   -1.29929536700201
O          -0.86804503546037   -0.14287104604079   -1.17285790151371
O          -3.04959830099477    0.80763772690140   -1.64767882614214
O          -1.57564781082514    1.79849031296885    0.06887720168874
O          -1.04126302011450    2.02621292090883   -2.25726571452235
H          -0.04723418465403    2.25759661070424   -1.92781280499774
H          -1.82768248324083    1.10528582092881    0.74360776695006
O           0.50583232388641   -0.68973586191767    2.47478697539984
H           0.79242067069199   -0.14342204782615    3.20724671180046
O          -2.00152874267809   -0.32133120924255    1.46021994693234
H          -2.00690511774039   -0.91076121269111    0.69901212603309
H          -1.16689690439011   -0.50607047647311    1.93772166452018
O           0.09851393164963   -3.15571697848755    1.22137199494442
H           0.34938052244620   -3.92784696479319    1.72965916562773
H           0.23526282057363   -2.38443432196696    1.79165663010220
O           1.26903372132395   -2.17163493454161   -1.10104285066721
H           0.88218446778217   -2.68124756726754   -0.36881288169854
H           0.51356330124700   -1.76069517720141   -1.53705943901651
O           1.37053989043584    0.17350174682997    0.14293811289023
H           1.75106042886136   -0.64557286826315   -0.24205497299848
H           0.47488922352600    0.16333960677959   -0.27193760884782
H           0.91860854967671   -0.31295856934666    1.65210141192617
N           1.29974304445098    2.55138748168451   -1.42508125034625
H           1.28019049738163    3.41056249910717   -0.89308306637814
H           1.97266772647666    2.63559182563572   -2.17469731540918
H           1.56770817368800    1.78026029012717   -0.81051969927140
