    26
        -50.45644089  Gyration_radius:  2.42981206549 Dipole_moment: 2.184
 S           1.77945127543505   -0.33787341000301   -0.07728880626910
O           0.90313843523397    0.52740326915990   -0.84051362729607
O           2.96586614695569    0.25722088706007    0.41731374349233
O           0.98924783695195   -0.90904063537454    1.12181344383061
O           2.10980686702840   -1.56154658919050   -0.94342896206063
H           1.25011113411043   -1.89829375760264   -1.37041718600806
H           0.06263364096858   -1.22330281148296    0.87542688859846
O          -1.36529859945827   -1.72584901722711    0.53939120464305
H          -1.79470582925760   -2.08075874998066    1.31953122481934
O          -1.08537826243729    0.21580272816255   -2.54700260408788
H          -0.33573927441438    0.43472758020056   -1.95295446425106
H          -0.97350494214758    0.74856615669933   -3.33550560811944
O          -0.16844927690019   -2.26866812540059   -1.85628892930789
H          -0.69936190741638   -2.36675218043303   -1.04982632562559
H          -0.55489663964860   -1.50222535365059   -2.31969039485900
O          -0.65358562942367    2.15548304130186    0.68377278789351
H          -0.04512833803047    1.78608896925489    0.02641224430303
H          -0.13174195574128    2.12084957610889    1.51050449504582
O          -2.51215874475543    0.44558898856521   -0.11836142439400
H          -1.94872562454647    1.15433631735438    0.27997370656907
H          -2.32634663058513    0.47721742297071   -1.06805221735086
H          -1.87499600081242   -0.87078570950189    0.29510069577088
N           1.36377316811170    1.69790477663548    2.48605700270950
H           1.83687518845814    2.44232705344350    2.98507497612393
H           2.01242789707980    1.33386641215874    1.79313639860798
H           1.19668604528000    0.94771315078084    3.14582174725879
