    26
        -50.45390806  Gyration_radius:  2.50159656106 Dipole_moment: 2.123
 S          -0.42596953139741   -1.35420130745131    1.05736342317318
O           0.78056689991192   -0.63477102527195    0.75407093094520
O          -0.67654748517392   -2.49015207227850    0.21993481325768
O          -0.44545488279154   -1.76801217939893    2.52670212184963
O          -1.61794198916609   -0.37126691869955    0.96859686315327
H          -1.66863065229386    0.01998732900813   -0.02536920667720
H          -0.06823437750582   -0.97961058057195    3.04364422473226
O          -1.49897406928378    0.56823776058102   -1.31896596959182
H          -1.16763615179330   -0.18611971495780   -1.84915796868061
O          -0.54997255337796    2.04016424306883    1.92550644807244
H           0.00446306995972    2.26254995593914    1.16632331475365
H          -1.19095041859399    1.39183398975216    1.60245303149197
O          -0.42001755174963   -1.70814844878836   -2.29328653458088
H          -0.94082892512323   -2.31810482063143   -2.82018297811983
H          -0.41295433685831   -2.08039133257320   -1.38373740272406
O           0.37583561378276    0.33000159296636    3.71734111895423
H           0.15984649007807    1.05223258873151    3.07373461533919
H          -0.13783692869933    0.51028431057771    4.50840874754065
O           0.77311567210084    1.64728253573413   -0.60162427145644
H          -0.70116458846141    1.14486806537753   -1.15224097742528
H           0.93922328969143    0.86266322804499   -0.04146358819117
H           1.27095329539112    1.44423419320216   -1.42403212331592
N           1.82845008023407    0.36253163468811   -2.74967103190965
H           1.18694977750267   -0.42258875093537   -2.68134477810705
H           2.74892574655699    0.01875335566195   -2.50524844137182
H           1.85478449706428    0.65774236829967   -3.71775437110349
