    26
        -50.44310798  Gyration_radius:  2.59980167964 Dipole_moment: 7.371
 S           1.30317415834207   -1.93126485340230   -0.47725187763033
O           0.44768399116223   -0.90999705382400   -1.05811445102434
O           2.45613126167930   -2.26035898144830   -1.23219971871442
O           1.67772365743415   -1.41322346391604    0.95336752008337
O           0.47851053945147   -3.16765472173976   -0.15678038604548
H          -0.34028858951000   -2.91012723643866    0.48597643841687
H           2.06197748576478   -0.50632578356626    0.78281575031907
O           0.22148672831118    2.34754386236256    1.13457007933593
H           0.22760527096627    2.56927212678059    2.06617647084439
O           2.31903981761503    0.93068411459689    0.11323951758876
H           1.65702558869017    1.54534655230810    0.49114455143954
H           2.03995474673128    0.76578109106130   -0.79324616771905
O          -0.01277703599380    3.00216900892979   -1.57337478317755
H          -0.17670269830169    3.92641053651612   -1.76412474296722
H           0.10791060528431    2.92808319582918   -0.61487519726310
O          -1.74067356424891    0.85543941363557   -1.94252125429668
H          -1.19676100422380    1.66063269597379   -1.97921124773640
H          -1.12091943463005    0.13565932801244   -2.10835567107058
O          -1.23742958098841    0.22541100558766    0.58888456900180
H          -0.51837536440101   -0.22492144113366    0.08426883780364
H          -0.38826513091864    1.56947605324961    1.02498698507804
H          -1.79231858315504    0.55321299954147   -0.15171092936778
N          -1.43467515748227   -2.50626974391844    1.37661238159059
H          -1.56907289294261   -1.50090277965648    1.25332300544420
H          -1.17491255400611   -2.69299530896064    2.33534684375495
H          -2.29505225058286   -2.99108062637471    1.16105350632538
