    26
        -50.46548596  Gyration_radius:  2.49529750457 Dipole_moment: 2.971
 S          -0.26108727128151    2.03275467873078   -0.25824810638042
O          -1.29505843818927    2.30036470187328   -1.22170912303684
O          -0.73073925184423    1.36187763517037    0.94203775652054
O           0.91229546144147    1.35430654961488   -0.80887491447040
O           0.28943088425397    3.45474455699939    0.20215181274548
H          -0.47958808732082    4.00747578875461    0.10933369609151
H           0.64493658417231   -0.05231663807699   -1.58837739986068
O           0.43113319087609   -0.91154198768891   -2.02472291963274
H           0.79691280230290   -0.86475830451484   -2.90905289366750
O          -2.17982494261157   -0.23553968327960   -1.29226500820235
H          -2.02893027986965    0.72375733974784   -1.24015785697652
H          -1.39389200057702   -0.59467872844730   -1.73029342272300
O          -2.24163469539009   -1.90322965448266    0.77905879360641
H          -3.04210371606268   -2.41219151530369    0.64604967278709
H          -2.28032755255292   -1.16984235684650    0.12084165987571
O           2.90878098606417    0.86416854410021    0.83478060667803
H           2.22123566440402    1.19363130956597    0.21146830356340
H           3.64478344726591    0.57700932289746    0.29192722443191
O           0.28158531673953   -2.53069164613236    0.21553466802953
H          -0.68219338446838   -2.48979594281193    0.40875726535082
H           0.38512549076310   -2.12068261370435   -0.65889512871076
H           0.67001097415034   -1.39969672444319    1.21283035156209
N           0.82973987899247   -0.52904358502375    1.81849139181235
H           0.70471429867275   -0.74167739020673    2.80171823299141
H           0.12611895332447    0.21006852651528    1.51281985164507
H           1.76857569683681   -0.12447219298145    1.62479549604410
