    26
        -50.46800649  Gyration_radius:  2.46362868823 Dipole_moment: 6.700
 S           1.03146338532196   -0.55058953504265    0.31875259108817
O          -0.18420812601971   -1.32429971565133    0.54854339589669
O           1.29700083011815   -0.43066545924229   -1.12087584370616
O           0.94816558320383    0.77014029687181    0.92730253589917
O           2.22756999938293   -1.31171154096574    0.92104282769370
H           1.85601142319288   -1.69157132441873    1.77111183909749
H          -0.40434367853203    1.63129097217206    0.33310336645419
O          -1.13640546278197    1.97907265267670   -0.21463759626147
H          -0.71287577922099    2.20004547118115   -1.05792846764870
O           0.63825325759787    1.84744268253721   -2.36433165584083
H           1.03499692102173    1.10704411649427   -1.85866445119154
H           1.29330793800232    2.54676107108035   -2.36806568569005
O           0.38446175264446    0.48684018347726    3.50387986728121
H           0.66068661953833    0.69812819136886    2.58776798547238
H          -0.45672847839008    0.92711304023528    3.63703349258736
O           0.82247566326924   -2.10094282210176    2.91013553486443
H           0.12069653848343   -2.11546001391805    2.24118942454087
H           0.69962938917124   -1.25908818392877    3.39376635767077
O          -2.32433150708346   -0.33261475295944   -0.61655603795494
H          -2.12437740994276    0.61593709943751   -0.41226365380256
H          -1.59540905898791   -0.50850197336330   -1.86910268314539
H          -1.68996747104877   -0.82447224542957   -0.04780766669060
N          -0.80614232371999   -0.58879140609818   -2.64914049812739
H          -0.71215861850525    0.29831591817782   -3.14430378995308
H          -0.95427028430111   -1.36134824298893   -3.28871377050221
H           0.08649889761312   -0.70807447979939   -2.08123740784577
