    26
        -50.44498225  Gyration_radius:  2.52764118333 Dipole_moment: 7.068
 S           1.43348259546647    1.86903040815078    0.02871586018955
O           0.02142405081946    1.89754020869079    0.31392789935588
O           2.29924269718141    2.57030649692733    0.90414923389939
O           1.84778465790268    0.33909097578625   -0.01478271832963
O           1.65998573009275    2.26166672620833   -1.42911204524952
H           0.87517586868817    1.80398534320741   -1.96149793356512
H           1.96764303596147    0.02037848264434    0.92882847047349
O          -0.48613507257386   -1.78430924578962    2.03147025843034
H          -0.91515297138957   -2.19050028308313    2.78560474687326
O          -2.31677947080853   -0.62655048981039   -1.19828596018194
H          -2.97011496065433   -1.31375036579313   -1.33347913947483
H          -1.44694150867296   -1.08071791818965   -1.09600018633675
O           0.08226494436069   -1.69915625031960   -0.70687093190319
H           0.74108073251190   -0.99047093650007   -0.62792481541628
H          -0.07779713121882   -1.99168121885046    0.20311317859415
O           1.94035228992478   -0.72460570170437    2.32762384372884
H           2.58186706435738   -1.43709695842813    2.36098337765200
H           1.04492936439902   -1.13860905616285    2.31196884088711
O          -1.85065752135455    0.30278882413040    1.35543590136474
H          -1.02867964390652   -0.95945735444441    1.81952180157131
H          -1.19621975878389    0.99556248443639    1.14430462819364
H          -2.23221605234034    0.06943039009110    0.49020552632685
N          -0.28051395307590    1.08118657278592   -2.57390609175882
H          -0.65646855851579    1.54414752162880   -3.39085092670634
H          -0.99698194723844    1.05342315882072   -1.85524772708527
H          -0.04057447113579    0.12836821556802   -2.81789507152972
