    26
        -50.46191423  Gyration_radius:  2.4933106908 Dipole_moment: 8.566
 S          -0.03761341960031   -0.47267215745633    2.47509505848264
O          -0.87242708393350    0.53449613265077    1.83003074346831
O          -0.52317564580531   -0.96646513020310    3.71895672988197
O           0.38214420135075   -1.48678246274594    1.50084227353516
O           1.35154926583335    0.29169601291891    2.79373573008897
H           1.22966349314931    0.52606348352864    3.70718880974310
H           1.30602960734458   -0.67434497302310    0.60818557719472
O           0.60164179436483   -0.83385694856836   -2.36234911978855
H           0.76513289309760   -1.37755911961993   -3.13327816114195
O          -2.48720443105106    0.02354635479578   -0.26960184347817
H          -2.06619158920112    0.21171844132485    0.58965009024136
H          -2.11209839554759    0.66917276033797   -0.88532223259846
O          -0.83939255285474    1.47170664340954   -2.07728032345672
H          -0.31878472392063    0.66766760296107   -2.27582069008613
H          -1.15404609154317    1.81952388151155   -2.91217417645986
O           0.46570121950879    2.16356658363086    0.28170531049583
H          -0.09160817591164    1.71210176279892    0.95838750692439
H          -0.07204208248720    2.18180668829985   -0.52560314664180
O          -0.96247068385638   -2.08445078406946   -0.78051153893790
H          -0.50680859057374   -2.09889149730410    0.07995150044057
H          -1.69588039732031   -1.43542175608649   -0.65016673446125
H          -0.03095321411495   -1.37628218299387   -1.76913646437660
N           1.82748217370049   -0.03094594207144   -0.07042519329120
H           2.82091856293326   -0.03853144534404    0.13017121263868
H           1.40472454715006    0.94863095062418    0.07310041019069
H           1.61570932926934   -0.34549291931129   -1.03533131859825
