    26
        -50.46548571  Gyration_radius:  2.4960675378 Dipole_moment: 2.967
 S          -0.91598153278279    0.06376570834189   -1.85217355633842
O          -1.57423953642310   -1.18184079131233   -2.14218759003614
O          -1.47086695501057    0.77484743042061   -0.71299400912291
O           0.53967567796075   -0.03719394509682   -1.74435185752110
O          -1.15062179812030    0.99163341634539   -3.12543453995189
H          -1.98526405784225    0.67432004828407   -3.45440285267256
H           1.11688226373829   -1.11386659629205   -0.66595802618516
O           1.41350204458964   -1.75925117994823    0.01969230596545
H           2.01223579328041   -2.36481497632482   -0.41948534032423
O           1.87866279543122    2.17952777565456   -1.27453807244950
H           1.37524127301037    1.39845955018809   -1.60060055008019
H           2.80585644317298    1.96735695014044   -1.39367664175642
O          -1.33455522297414   -2.13763743704417    0.35791336436843
H          -1.59201414048755   -1.83467234547529   -0.52955819763684
H          -0.37223394080001   -2.24390345451726    0.32238705812398
O          -1.45991470267352   -0.68660149555288    2.58399472815669
H          -1.90137080315619   -1.25949655358466    3.21202383851699
H          -1.54861070138642   -1.13278475301262    1.70903006193271
O           1.13598984378109   -0.18845909354741    2.28163556184816
H           0.22787855443382   -0.43586269074097    2.56815266564966
H           1.36806179357864   -0.82646662953676    1.58694114057750
H           0.69449231381245    1.08044505937781    1.49550685486942
N           0.29113071026830    1.85392962458860    0.87123371066215
H           1.00825047378435    2.17555007084114    0.18930143161209
H          -0.07161906314627    2.61926558982442    1.42823266650526
H          -0.49056750603782    1.42375073797051    0.28931581529061
