    26
        -50.44498227  Gyration_radius:  2.5277393504 Dipole_moment: 7.067
 S           2.21153268861864   -0.31877787293725   -0.74602184699944
O           1.79018449021305    0.66875680236685    0.21488144551185
O           3.36795929927215   -1.08104291765027   -0.44719364386987
O           0.97567139285300   -1.28944135830320   -0.95738748455828
O           2.29872282747154    0.32777527929850   -2.12629250888850
H           1.47323933579064    0.97946277678351   -2.17657593327246
H           0.95838055173184   -1.94405707933632   -0.19736126285971
O          -1.29565251754454   -1.30597991439386    2.04015043173637
H          -1.63623112378772   -1.48545287554076    2.91737890435002
O          -1.66785659267118   -0.48849477896680   -0.61001093584477
H          -1.77145843650022   -0.89769964818572    0.26235558880826
H          -0.77097898917629   -0.72954825736865   -0.89286571127183
O           0.61269122430707   -2.87285891693545    1.03947017757213
H          -0.08965413005074   -2.34627583396580    1.48992890440974
H           0.21257122587802   -3.69866003313758    0.75968966803745
O          -1.69640034262742    2.07294305424861    0.15567042059245
H          -1.76310460273789    1.14978934382943   -0.18581841463290
H          -2.58540952567626    2.34407916608741    0.38698872195905
O          -0.07865989857933    0.97233243724895    2.09864178733420
H          -0.63491377928589    1.55535809784029    1.55158790291958
H          -0.80258232676190   -0.42773874750553    2.11251171873911
H           0.73292391821952    0.85710839926241    1.56871965445551
N           0.25445829843629    1.84123974932146   -2.10181246318969
H           0.33842518873678    2.70205340765015   -2.62627557937873
H           0.13964308909961    2.06738054533325   -1.11884215076936
H          -0.57350125522112    1.34774916500966   -2.41151741093293
