    26
        -50.46191421  Gyration_radius:  2.49334049802 Dipole_moment: 8.567
 S          -2.30630746426466   -0.74240336483692   -0.69385764076522
O          -1.68892913493571    0.50290197794287   -1.13609891741851
O          -3.33191303772561   -1.25231145991560   -1.53937435675762
O          -1.27655800253391   -1.70317892189971   -0.28106926270153
O          -3.01175199157047   -0.37108236197748    0.71333240212469
H          -3.91023753049224   -0.22494786345940    0.43847555980057
H          -0.72901910290419   -1.03095472837917    0.96758790802818
O           2.30575044806169   -0.66479631927756    0.93721591586125
H           3.11001912351282   -1.13588940215883    1.15611001331838
O          -0.72404443827849    1.94307347119177    0.82260325385238
H           0.15777904285691    2.18387723032008    0.49743760745887
H          -1.19437646471915    1.55828506846952    0.04601215650008
O           0.73983718883635    0.64246553438772   -2.30186219178764
H          -0.20397912416641    0.62207267365608   -2.05742814720945
H           1.15441784006505    1.24957549140182   -1.67240879243704
O           1.92542611000055    1.86507107689560   -0.02610837654183
H           2.73549861290408    2.37435027744428   -0.06474319844564
H           2.15047523936698    0.99031395334879    0.34957528064019
O           1.28946677544600   -1.69003001896001   -1.16722812383747
H           0.37163665474285   -1.91404554865790   -0.93138703015087
H           1.19758988550818   -0.90636371599722   -1.76179455943681
H           1.94570844434523   -1.10924427917973    0.08916497222607
N          -0.28178258270499   -0.45251585861053    1.74970809963791
H          -0.50193658218339    0.57483572261818    1.51519551553468
H           0.74457162351182   -0.59098192292985    1.70231358065875
H          -0.66734155283933   -0.71807671137077    2.64862832173037
