    26
        -50.46800651  Gyration_radius:  2.46434940159 Dipole_moment: 6.693
 S          -0.68976977804346    0.59870658843783    0.79418170585345
O           0.23863334188916   -0.36336150830829    1.37872863485174
O           0.04228013032448    1.74804580670206    0.24585522027803
O          -1.51354923711457   -0.01342428025888   -0.23932208119313
O          -1.60015351596304    1.15205364851975    1.90669052944883
H          -1.77969955128097    0.34931254940215    2.47957642410428
H          -0.53933955906208   -0.69652119512230   -1.46809003804630
O           0.17910640726539   -0.90074675859181   -2.09962666667254
H           0.37592154343041   -0.04700736481052   -2.51411744130535
O          -1.70433401953335   -1.13027976028057    3.06163289948341
H          -2.24937310357693   -1.63332591057982    2.42322499247527
H          -0.79601208109347   -1.19443714914839    2.72835415931174
O          -2.75317829979905   -2.12054693373200    0.78998589832447
H          -2.40182291454896   -1.32720558202006    0.33452834013762
H          -2.45407797421079   -2.87540460585533    0.28015896294594
O           0.47452178547309    1.85843498990490   -2.39407131641412
H           0.14690621092155    1.88761720483542   -1.47036691188751
H          -0.20723996159049    2.26640234964194   -2.92983359864609
O           2.06205630122559   -1.25193320028904   -0.29701461270690
H           1.44583461561803   -1.11733294232425    0.45792647215798
H           1.45343364342691   -1.34546071102025   -1.07298218418787
H           2.47117510506865    0.14326774699134   -0.42922470493276
N           2.49403385099195    1.25441563839745   -0.48107747490253
H           1.57408874203825    1.53852331833394   -0.02661091549327
H           2.43801616028971    1.56044773896914   -1.45280465396732
H           3.29254216786902    1.65976030218507   -0.00570165907416
