    26
        -50.45283514  Gyration_radius:  2.4620486326 Dipole_moment: 8.017
 S           2.00483734886109   -1.00690309066288    0.92003624936191
O           1.01218744818269   -1.62915631096168   -0.00276647352279
O           2.93715077876321   -1.92395064226086    1.47154290224073
O           2.58413108525775    0.16818367411086    0.26486489753591
O           1.11852943228833   -0.42570416762807    2.10514152320902
H           0.17529995439933   -0.43396373095949    1.84636425729789
H           1.75643235092572    0.66464050283081   -1.37001710601323
O          -1.51539381258033   -0.36203698304513    1.54818085595568
H          -1.97227718638213   -0.65036834843397    2.33920936195318
O          -0.96111097554818    1.69721412694723   -0.16211662024199
H          -1.29153781622122    1.06691166308556    0.50095287247163
H          -0.20606792113786    2.13990983079963    0.29591769629853
O           1.28904242206679    2.29672250829110    1.09105935040064
H           1.25057689987971    2.22176751695911    2.04639864138452
H           1.86620866882943    1.54828890489838    0.80539494273127
O          -2.01500958086324    0.01550422678716   -2.19229773920955
H          -2.91260442163893    0.04279673499423   -2.52662605829575
H          -1.92303603566381    0.75469276514075   -1.57363996612425
O          -1.60148696000918   -2.09266973046572   -0.37951249628642
H          -1.73281800234796   -1.52025810670555   -1.15389762039700
H          -0.63968571370592   -2.22840040519076   -0.30306367556488
H          -1.63852723415712   -1.08260840304439    0.86141510552606
N           0.82595341968032    0.29880127345960   -1.61196102919314
H           0.82841282355286   -0.63383077236093   -1.03042215694882
H           0.67329954416877    0.16080665476674   -2.60495970669779
H           0.08749348342592    0.91361028868354   -1.18519798787306
