    26
        -50.44697466  Gyration_radius:  2.6894753519 Dipole_moment: 6.048
 S           0.08955076946254    1.37124754156364    0.77356118141337
O           1.07999210264183    1.48502838264167   -0.26926784214026
O          -1.23659744435592    1.07288760613255    0.34286974931961
O           0.57848273821208    0.30186918277868    1.79036362471908
O           0.09856340220671    2.63769127353529    1.63167927112292
H           1.09699244547709    2.86546617100075    1.74268804102867
H           0.51260977151309   -0.62139897859454    1.38467698353162
O           0.53199101375361   -1.96428286483353    0.60104020710243
H           1.21116423773010   -2.56510906708948    0.91364898647107
O          -1.02107591961780   -1.39114862093027   -2.87143199586066
H          -0.98207987193751   -2.06664890400208   -3.54989439085317
H          -1.44679972670082   -1.81933677833628   -2.08570069772963
O          -3.46507666454163   -0.46291557169472    0.20099931022309
H          -3.93959187018850   -0.07468947122750   -0.53670837939874
H          -2.69634861071147    0.11412749569256    0.34832935861214
O          -1.95988749242459   -2.53831727499018   -0.66883336131820
H          -1.19319210783360   -2.47467790390099   -0.08444766518480
H          -2.60897767006789   -1.89843132748107   -0.31152902685930
O           1.26062080081350   -0.87929472449128   -1.58820889397769
H           1.25629747299822    0.04711161477900   -1.29238853666303
H           0.84908763608397   -1.61205729439689   -0.30336087009449
H           0.46702117970799   -0.98272927118099   -2.16577180791996
N           2.64133388101843    2.90246330925960    1.58376827925017
H           3.15760575897113    2.35393211056431    2.25800680698321
H           3.10280986802662    3.79342269327024    1.45887107349694
H           2.61550429979364    2.40579067198521    0.69704058474884
