    26
        -50.45075476  Gyration_radius:  2.55184117493 Dipole_moment: 7.327
 S           0.88489654824998   -0.83783675068806    0.05958403006591
O           1.52325582591294   -0.93527770298878    1.34496107320337
O          -0.51780265947557   -1.11771211866805    0.02902834544236
O           1.16240436898675    0.57323131732104   -0.48683796052970
O           1.59807975456684   -1.76572967661031   -0.93625593340419
H           2.59923052895311   -1.62390063483066   -0.74935802462743
H           0.34677732709201    1.02816392180245   -0.93294025738330
O          -0.81303669549981    1.77734354432648   -1.47159070767359
H          -0.53209069896157    2.66488689073781   -1.70336314106639
O          -3.20242330377502   -0.47359714198700    0.49030522826322
H          -3.33847543650084   -0.53327708616979   -0.46924546157635
H          -2.34740749359426   -0.90364045449120    0.62438266616321
O          -2.25083301971241   -0.61676835084922   -2.12307192423715
H          -1.92414637711620    0.28184907071423   -2.24225161162766
H          -1.59983891470118   -1.04336569876629   -1.54987485235820
O          -0.25817302331168    0.77102105691271    2.46349094847369
H           0.46053653279888    0.20599630092091    2.13770000877710
H          -0.80075398183758    0.21522283490530    3.02782674848787
O          -2.05338782359622    1.91766447666118    0.73688167777888
H          -1.37678684815601    1.68369699728487    1.39853918465231
H          -1.36252771304580    1.87101925313667   -0.60601391738808
H          -2.64930890798393    1.13153589452451    0.70414082700226
N           3.93935562937760   -1.16533436058622   -0.09957437458299
H           3.49941305491063   -0.95801649065474    0.79294995506350
H           4.32825111996120   -0.31265749516847   -0.47927764411044
H           4.68479220646153   -1.83451760676182    0.03986511716211
