    26
        -50.45996062  Gyration_radius:  2.57756244639 Dipole_moment: 7.111
 S          -0.60359674290583    0.51762900276150    0.12415202418334
O          -1.60916468098666   -0.25584238342734    0.83222524438157
O          -0.83984247301642    1.93362468273727    0.07704788803940
O           0.72415298446561    0.26783180488526    0.96629132310155
O          -0.33320472369835   -0.06927246193826   -1.19308566621225
O          -1.16625138092135   -2.46563452120871   -0.81467404331596
H          -0.83066409489597   -1.57637290307883   -1.11473369859764
H          -2.04953749885313   -2.27379875562496   -0.48666967073467
O          -1.49217882558596   -1.59299785514381    3.06413639942929
H          -2.37586343952568   -1.88452177348968    3.29296060982004
H          -1.60180571257262   -0.93433118188527    2.33505659445580
O           0.97009171973389    3.18454825450529   -1.41718752900715
H           0.20755288152502    2.90860600241558   -0.86773946758034
H           0.84373141560493    2.71296073392748   -2.26355041800401
O           0.22837554631312    1.42620080178552   -3.34241256725812
H           0.07087048253506    0.80834766939615   -2.59985891694537
H          -0.63075482478995    1.59404005161538   -3.73286061158038
O           2.55146684805008    1.74660842881589    0.01272934552799
H           1.45711120454235    0.84863058958954    0.56590752526709
H           2.03658394081671    2.33744544779895   -0.62579420554559
H           2.87398385221981    2.33285637007661    0.70031524522159
N           0.34059549836200   -2.34489938453580    1.30712663374859
H           0.67954576973340   -1.36251557210188    1.18749655593400
H           1.10573658142539   -2.99916243539255    1.43305404779989
H          -0.30663291058032   -2.30968440181042    2.13141277918203
H          -0.25030141698433   -2.55029620065081    0.42865459868530
