    26
        -50.44512120  Gyration_radius:  2.68148724926 Dipole_moment: 3.267
 S           1.08961955839364    1.56458357323718   -0.43077175060364
O           2.09595680065990    0.55851337522339   -0.19176616757928
O           0.19394241569798    1.32498929137717   -1.50729407327088
O           0.31530071634162    1.78645623131325    0.89141276917818
O           1.76534211177013    2.94013131896240   -0.61042981707887
H           2.42313725283687    2.98043385545346    0.12619746021952
H          -0.17353850163638    0.93624318462372    1.20538097624659
O          -0.83362579292325   -0.29073043780496    1.73083916749332
H          -1.39941825247315   -0.05919656179464    2.46988038909016
O          -0.47255366375622   -3.15309669720647   -0.82769655303144
H          -0.46500952531656   -4.07589296166247   -0.56988311740734
H           0.26714240838880   -2.72759999794615   -0.33871643816300
O           1.28274560784826   -1.87760155316386    0.75914002775860
H           0.62430588230477   -1.47415184324040    1.34014055444640
H           1.71429506908942   -1.13433116119270    0.30982666745641
O           3.24111648949903    2.31921471543359    1.44246885055108
H           2.69543852171150    2.30128153955936    2.23276474741844
H           3.14104477176236    1.45236833163899    1.01147024969510
O          -2.33307429544946   -1.40503748836966    0.04472132934745
H          -1.76148154568116   -2.11457605296735   -0.31912008925826
H          -1.46429679026528   -0.73311261005731    1.02541644841632
H          -2.46861306691316   -0.78002666320044   -0.71529789374050
N          -2.43702963406494    0.25358187053444   -2.05455520723594
H          -2.43034879338809   -0.26907837612879   -2.92186679468191
H          -1.51159568882692    0.66402757733252   -1.94460159000377
H          -3.09880205563935    1.01260755004444   -2.15766011528553
