    26
        -50.45146362  Gyration_radius:  2.53153550857 Dipole_moment: 7.042
 S          -0.14795366577741   -1.75312686141148   -0.97352539382225
O          -0.28057784495913   -0.32844295110160   -1.22047535684417
O          -1.35629004229145   -2.49483317665046   -1.08797197495522
O           0.94821121450839   -2.31639941645816   -1.85815809202116
O           0.47411241525956   -1.92817680550270    0.44184309284740
H           0.14697485024048   -1.24826431188380    1.11410174166272
H           1.80598618384658   -1.70553330809145   -1.65290113005937
O          -0.22743507609189   -0.17778662563594    2.16506892230407
H          -0.47387805815751   -0.60459130707597    2.98713333189689
O          -2.94632781951430   -0.17620025216669   -0.81388565080943
H          -2.05974432951188   -0.02223138917382   -1.17572967946875
H          -3.03511595172733   -1.13472429305148   -0.81969625087975
O           1.33455789659790    1.14444124594091    0.22486016029612
H           1.10275856316805    0.80400587709523    1.09910804911324
H           0.70012918419052    0.70590774947923   -0.38446325073456
O          -0.56480947866319    3.15344429480461    0.46392897948737
H          -0.24613685711836    3.86190824173744    1.02441622888835
H           0.19773642237408    2.57578455433918    0.27489787850425
O          -2.23442679096267    1.18690423420449    1.39900617430359
H          -1.81377825793926    1.98498164727043    1.02589759725546
H          -2.64884503638548    0.72703780955786    0.63812132727847
H          -1.04948619589336    0.35907479045027    1.87097693875736
N           2.90417205284161   -0.81431164861716   -1.26015149863271
H           3.57348151446605   -1.31938179610159   -0.69447984336639
H           2.52322869213458   -0.03880017036234   -0.71331766319023
H           3.37345641533323   -0.44068614160762   -2.07460462778654
