    26
        -50.45146364  Gyration_radius:  2.53138157712 Dipole_moment: 7.045
 S          -0.39215783494495   -1.69033795553929   -1.01488893468888
O          -0.13984689471153   -0.28124633427063   -1.25782265034305
O          -1.70536987522608   -2.12761466342807   -1.34280481388577
O           0.67127404079760   -2.51854526849626   -1.71047324288901
O          -0.07518303287370   -1.97229479954525    0.48221211570603
H          -0.34321563985304   -1.21925563687661    1.10052358484299
H           1.60278404305934   -2.12463409436750   -1.35050019815077
O          -0.62720556484012   -0.06567119968022    2.09032280182607
H          -1.10462672205640   -0.40266903780478    2.84999122717994
O          -2.72252068791321    0.50789848181051   -1.30660102477244
H          -1.77677162673454    0.43744439373194   -1.50967792905974
H          -3.03519459181364   -0.40180639459254   -1.34290653799139
O           1.51028969326827    0.80060773314678    0.46619188350743
H           0.90225161545016    0.51085589740831   -0.24969266985141
H           1.05965671462527    0.54614143000377    1.28233786589786
O           0.13148184873589    3.20841210784493    0.41492652105970
H           0.50907667638207    3.83299323213775    1.03526280325644
H           0.75524406604917    2.46190116873858    0.34789050950186
O          -2.09186196341641    1.71760759143576    1.01716820176250
H          -2.46874624383854    1.35057935158881    0.18924496593419
H          -1.23569836554391    0.64387721070530    1.66961550475404
H          -1.43635252392401    2.38367273541901    0.73471337712552
N           2.79674661033002   -1.51222342823813   -0.75824764116643
H           3.47748312388145   -1.28413741240649   -1.47081334430147
H           3.21464064600261   -2.14785460062650   -0.09157484967942
H           2.52382248912033   -0.65370049806546   -0.27439753556847
