    26
        -50.44647010  Gyration_radius:  2.48309276182 Dipole_moment: 5.858
 S           1.72903445745109    0.96225889421930   -1.31716651063500
O           1.42491566899356   -0.44099417107841   -1.45134318363146
O           2.49884577948446    1.58002855662304   -2.33001082669855
O           0.36398502289156    1.72550091641561   -1.17092227196186
O           2.36986603737408    1.20023669165449    0.06536047900394
H           2.04560216497461    0.43049390333673    0.64250671774516
H          -0.41985127432780    1.10981516860824   -1.25479874095476
O          -1.73150342711445    0.21037585073616   -1.35609286276679
H          -2.29655941329753    0.51587482324513   -2.06732019373163
O           1.40512209573669   -0.79375097294622    1.30614787233185
H           0.44881538754304   -0.59631354821701    1.41978219107477
H           1.45529789121174   -1.44218489942235    0.59516518136338
O          -1.22393236111999   -0.11536341152498    1.36809356924243
H          -0.94418627488004    0.78166802940828    1.67635652442807
H          -1.56954671481035    0.03162129601238    0.47515517350294
O          -0.84493510876099   -2.81238999196303    0.71535563940170
H          -1.09294555572038   -1.96314416691009    1.11326483002462
H          -1.36827703870776   -3.48777018188498    1.14773440525314
O          -0.66904442777025   -2.05638458886127   -1.91621932655606
H          -0.71895801933866   -2.51862918918967   -1.05961132463861
H          -1.38782962694083   -0.70378612276629   -1.62916011980852
H           0.22044128272372   -1.66337406004796   -1.94510836078593
N          -0.08796698128347    2.29137055589509    1.77194195247032
H          -0.53436134591089    3.12003976747067    2.14469743828621
H           0.13648792397667    2.46804722465561    0.79690649874763
H           0.79148383758673    2.16675364649815    2.25928520932636
