    26
        -50.44438665  Gyration_radius:  2.51400510059 Dipole_moment: 5.865
 S          -1.05444553801156   -1.55306773522066    1.73101760854019
O          -0.06499011999603   -0.65839028174211    2.26044389300761
O          -2.11836345849104   -1.94072773689062    2.58156143482424
O          -1.63232508978958   -0.88876064621719    0.42073151907578
O          -0.37321510231969   -2.80253743549882    1.13681829850429
H           0.36429710357264   -2.47446615118098    0.54853991357037
H          -1.59315687489202    0.11244305083963    0.49939958454263
O          -1.49677397123980    1.68319542221070    0.52857867320593
H          -2.18631745628325    2.05589117652624    1.08006954611180
O          -0.54760705734631   -1.11249282331829   -2.12987300145853
H          -1.21563383190194   -1.21665523917528   -1.43815622082847
H          -0.44396986390801   -0.14789954875184   -2.23712883201139
O          -0.44810378680997    1.61935435312213   -2.01922562704789
H          -0.84197850083604    1.72668832415528   -1.13490609961849
H          -0.94779500637778    2.17864394029387   -2.61575540476793
O           1.37663606192031   -1.99063934528767   -0.59983952412463
H           0.70785830309852   -1.66513642492303   -1.26845897050508
H           1.77292784951778   -2.77952678586339   -0.97520411898350
O           0.70638648568216    1.86050640638525    1.75419761647531
H           1.33727337485380    1.65384834157612    1.01437306380567
H          -0.60774655075911    1.83335000445157    1.03616713101599
H           0.59028568602224    1.01018150995528    2.21085230189096
N           2.09500091560725    1.00109029851500   -0.37183397516958
H           3.05289779311350    1.24934304593293   -0.58092941280928
H           1.52212138860512    1.25208164965075   -1.16988253355055
H           2.04673722688689   -0.00631734957786   -0.26155687377973
