    26
        -50.47468837  Gyration_radius:  2.41780748462 Dipole_moment: 2.065
 S          -0.12846308636744   -1.56291748740717   -0.71592635088415
O          -0.02596936106927   -0.38573558501198   -1.58286128923926
O           1.14804740820048   -2.16972966782883   -0.46707480482609
O          -0.83273553354962   -1.21062416980754    0.52624385416702
O          -1.03716961540726   -2.59437064665377   -1.46138963868548
H          -1.89680096699433   -2.14343430321469   -1.49293501080502
H           0.01000037218436   -0.38375874731853    1.63175334699031
O           0.54017628632580    0.14382803032307    2.27924928357828
H           0.24264452492131   -0.12576533344454    3.14939487741192
O          -3.12330078558155   -1.06134457163734   -0.66313110427705
H          -3.81115094386211   -1.54988514935237   -0.20678447472132
H          -2.35270363808556   -1.01891981704272   -0.05199504422409
O          -1.70524752081228    1.53622648407150   -0.77347661429600
H          -2.56873262471008    1.12014149794602   -0.71137077290470
H          -1.12557896727670    0.85332905046196   -1.16328843238639
O           2.81202727753899   -0.56020233845681    0.86057692514198
H           2.36655571041056   -1.29977374153202    0.39721181668012
H           2.21862674913060   -0.33662796773632    1.59671475182672
O           0.24762387049287    2.48687103404273    0.83880340930301
H          -0.57487298261738    2.31056443633113    0.33932916038648
H           0.29290887466455    1.79905512126056    1.52491034274001
H           1.31370595216212    1.90972605535178   -0.17000000045382
N           1.88609687792055    1.25275747436395   -0.79260676086663
H           2.46118593945484    1.75305874285923   -1.46014476247066
H           1.18941267470582    0.62709681196033   -1.27128305751108
H           2.45371352822155    0.61043475746658   -0.15991962967052
