    26
        -50.44647009  Gyration_radius:  2.48318345691 Dipole_moment: 5.859
 S           2.00755578767612    0.27746630085033    1.24280015696834
O           0.73307461315967    0.40817763461031    1.90478501104412
O           3.16128166217082    0.10006543053027    2.04121301324828
O           1.89071348487147   -0.92089715882664    0.23411654560814
O           2.19412066566550    1.47333832628624    0.28689653248707
H           1.25333660923329    1.79130861268161    0.07586475797898
H           1.00175040289208   -1.37547558429377    0.29442293560687
O          -0.38845199712941   -2.15430611495356    0.30155446728345
H          -0.25462336284439   -3.08256187381573    0.49877792492155
O          -2.91910304411754    0.63643760962637    0.45952971352904
H          -2.44847222690671    0.40609075558013   -0.35690007126528
H          -3.85026649387976    0.68623889716326    0.24140789511428
O          -1.06436764101780   -0.12827657466667   -1.49412685802787
H          -0.90234169208772   -0.94198852767375   -0.99415871828168
H          -0.26056830172237   -0.02061141333190   -2.06005974042945
O          -0.24492961389634    2.05850749014310   -0.10718081053001
H          -0.57570473463484    1.89941689476842    0.78371916919511
H          -0.60570439807550    1.32971899753597   -0.65952776317975
O          -1.56005100681573   -0.94839853666642    2.23907522518774
H          -0.89311902650275   -1.75923267475463    1.08742630308394
H          -0.77091549393689   -0.40772675763326    2.41620927195267
H          -2.17547440111083   -0.35903277138326    1.76582047763304
N           1.39562435660406    0.21719849881949   -2.53059156137295
H           1.62750885186102    1.20332247400739   -2.51563775592819
H           1.75180998412512   -0.17221404070127   -3.39452445189898
H           1.89731701647647   -0.21656590389760   -1.76091166994244
