    26
        -50.46117179  Gyration_radius:  2.41704229729 Dipole_moment: 3.325
 S           0.97346183665748   -0.10934150339300   -0.30726923903830
O           0.74164532486307    1.08480849497683    0.49246892985393
O          -0.19348585778157   -0.37398467656167   -1.17443545118046
O           2.16178955361066    0.19060172926829   -1.24939864772050
O           1.26765486104540   -1.27395411420330    0.50518030193193
O           0.02623044315200    1.06492545730533    3.09513787700618
H          -0.61892725586321    1.77608778560656    3.10292803781975
H           0.50949875119721    1.14528910489947    2.25211761135246
O          -0.74136541649975   -1.31798902582112    2.21074270300467
H          -0.51633076356514   -0.53447834049826    2.76589257713304
H           0.06724727817833   -1.47350806976484    1.66849117110489
O          -2.17200055349108   -0.43792953725448    0.38740990800656
H          -1.66244736076888   -0.87225334892299    1.24757761532858
H          -1.47366508459512   -0.53636340453987   -0.35491098018525
O          -1.04548317218258    2.01988404663256   -2.07025976420620
H          -0.73280075646921    1.11275287165641   -1.88761983070318
H          -0.26858941111310    2.52279337541772   -2.31904281659437
O          -1.72772875694519    2.03817107959745    0.53646553068554
H          -0.76462913953070    1.85302824174590    0.60803576169230
H          -1.82371363710231    2.30036772709217   -0.39895230349863
H          -2.17591668636946    0.59781028678458    0.53001406371027
N           2.06316794315073   -2.27576323333763   -2.01344226150905
H           2.76530730090615   -2.94503906246149   -2.30135824770604
H           1.80934782897398   -2.45150474987748   -1.04490856445430
H           2.29556617615187   -0.69919063088897   -1.69916536246333
H           1.23616655439682   -2.40522050345526   -2.58169859937502
