    26
        -50.44839713  Gyration_radius:  2.49862260592 Dipole_moment: 8.391
 S           1.42006526798668   -1.92456711274959    0.42511875936419
O           1.01574149291582   -1.07918293108492    1.56990881953411
O           1.16229294389975   -3.31299919475272    0.61131583175764
O           0.47744436528904   -1.40154107499003   -0.76585089911611
O           2.74451276255292   -1.54344270341465   -0.05511017381799
H           2.55206383188683   -0.04102358280228   -0.06584754923023
H          -0.45726892769148   -1.57314279077139   -0.50442521879611
O          -2.10131459387116   -1.51642333345202   -0.17450121783909
H          -2.37534338409447   -2.40124010597802    0.07209786682570
O          -1.24858799045530   -0.02175049402965   -2.40542865255512
H          -1.84630976005352   -0.39599687528342   -1.74103725921835
H          -0.52867749436769   -0.66093865887435   -2.46591023461507
O           0.13809663820185    1.95780989912913   -1.38770968244987
H          -0.41318394660848    1.21437802034749   -1.76019555812135
H           0.28842326535665    2.56429845629685   -2.11430880582379
O          -0.88119997403594    2.30489809693670    1.16276217922472
H          -0.57551483493082    2.23794594329385    0.24290135589399
H          -1.64156368077060    2.88795124793709    1.16375247598908
O          -1.47472338231629   -0.27415032293218    2.00232412707138
H          -1.32325921231336    0.67164258942848    1.83234889497965
H          -1.98844233082340   -1.01218769816782    0.68711341011524
H          -0.57668270493340   -0.66393528984229    2.03890944785357
N           2.05119396792573    0.84877469869919    0.29842166414560
H           2.67929101898584    1.53620093403686    0.69977681913523
H           1.48396633344036    0.32938778779258    1.03788487744314
H           1.41898033853881    1.26923449522737   -0.40431127779625
