    26
        -50.46815426  Gyration_radius:  2.47597132094 Dipole_moment: 5.892
 S          -0.96038966842551    0.15444634562982   -0.58433434430448
O          -0.34716551794294    1.46963872127857   -0.81353621001254
O          -1.17919259735805   -0.06550264669062    0.83911184475185
O          -2.32788467100240    0.18316378734981   -1.29917803897572
O          -0.14355909078016   -0.89519840308714   -1.17934012952546
O          -1.37587753904501   -3.22137801910752   -0.89758272702386
H          -1.42022894166722   -3.62821160598351   -1.76433473597617
H          -0.82577887160079   -2.41527137999930   -1.00137965434796
O           2.27864378220291    1.67021448472120   -1.26257460227298
H           1.30346700597647    1.56664929794628   -1.28004271203910
H           2.57079767165398    1.59713316166064   -2.17219204246568
O           1.00868604448487    0.06376180922375    2.30090105267561
H           1.09077541944175    1.43089003848594    1.81697366831443
H           0.10770391379903   -0.12486269575058    1.95566628656347
O          -3.25232986148137   -1.66314687763794    0.20483385074537
H          -2.68771129341201   -1.26026775581151    0.88133551276155
H          -2.84944702309042   -0.52347728053860   -0.81244272820490
H          -2.73782627946434   -2.42606882399226   -0.13432343071999
O           2.20488328123649   -0.75862727851993    0.10938065843358
H           1.39100914075130   -0.98814091208986   -0.37888312633925
H           2.53470869812301    0.03863532327229   -0.33296108434787
H           1.60146613277588   -0.39736893549748    1.65491417636425
N           1.03089881178302    2.36599840060710    1.21090193359988
H           1.91970843848901    2.53586982027721    0.74006187529605
H           0.73362305616519    3.17116909698592    1.75047255759730
H           0.33101995838775    2.11995233726561    0.44855214945547
