    26
        -50.45137704  Gyration_radius:  2.44196518002 Dipole_moment: 3.688
 S           0.08607495606272   -0.88082333870751    1.71420449815371
O          -0.18223063584271    0.21857656837527    2.59679975880614
O           0.14200094999588   -2.18999664519860    2.26418254952498
O          -0.97703318532450   -0.87373284497113    0.58665655834318
O           1.42715736232573   -0.62315857892487    0.98254959248974
H           1.47822783199350    0.31306768227122    0.61252382983360
H          -1.36720100884890    0.03534044291546    0.41550103812789
O           1.53883641668062    1.69811373577855   -0.09443585520412
H           2.40205176160825    1.82909295841641   -0.49052629508698
O          -2.01531880743046    1.45632461831067    0.15501080072116
H          -2.88993354250135    1.49033966923898    0.54638782476745
H          -1.43245651702667    2.05712862175635    0.71365278488456
O          -0.34731935554697    2.71615173956461    1.67792916725276
H          -0.26711433158316    1.93548106886632    2.25900603427882
H           0.45674293892347    2.71145520581110    1.14011720820610
O           0.91488268761329   -3.14007140005881   -0.15450588670144
H           1.85872490991376   -3.01644928150821   -0.03461541893238
H           0.52193766624529   -2.96368039212134    0.71464573309179
O          -0.14008595541655    1.16556173439264   -1.93837285847682
H          -0.12882365112695    0.17418122636406   -2.09238739704997
H          -0.98498774949094    1.35389216968891   -1.51324067531901
H           0.89395419017572    1.53352814282370   -0.86767093434352
N          -0.21217355411473   -1.46905104303653   -2.28042302212495
H           0.21945276170936   -1.83381103873026   -3.12115075482091
H          -1.19079924055008   -1.72949761106098   -2.30394033934218
H           0.19543311155307   -1.96796343025553   -1.48789795108646
