    26
        -50.44906851  Gyration_radius:  2.49677085241 Dipole_moment: 5.058
 S           2.02444845529220   -0.14866090244641   -1.49765093637923
O           0.85222568768112    0.61648326567513   -1.99416587506158
O           3.16188760315413   -0.07707898215818   -2.34040614375757
O           2.27881853519247    0.26422674601758   -0.09805531735549
O           1.55771062399775   -1.64647802346798   -1.42957840020712
H           0.71563060169111   -1.73923557503353   -0.94140930973613
H           1.63175352281583    1.69267685357932    0.14382865701774
O          -0.84549043977540   -2.12236742694020   -0.23314155451175
H          -1.13015383530536   -2.89416149602905   -0.72479867789779
O          -1.16418833022463    1.26207116008432    1.15272256249822
H          -0.51497454954765    0.56282011846231    1.43152060622682
H          -1.97764624584368    1.00801059125411    1.60440335663193
O          -2.39578820706896   -1.05401216190403    2.09468274264463
H          -1.79861792597769   -1.23995414623855    2.82267134265848
H          -2.06290209668060   -1.55587338553153    1.34022511753955
O           0.58452693901586   -0.66021083750500    1.68625050248955
H           0.22061083084534   -1.43782318166219    1.24628728660599
H           1.34504038802429   -0.38111066058212    1.13126260467782
O          -1.63896161689165    0.07528522530954   -1.29216804531693
H          -1.26533876976090   -1.32168803171012   -0.68397896401580
H          -1.64810839227069    0.62647468654216   -0.48720602958292
H          -0.79339053163866    0.28226723198797   -1.74293086958248
N           0.88778508682467    2.37874359385719   -0.18994415162559
H           1.21116217635682    3.33607273474213   -0.26680444532103
H           0.04352501351473    2.28501469637712    0.39957059714049
H           0.72043545662157    1.88850790731517   -1.13118666578494
