    26
        -50.44906853  Gyration_radius:  2.49671659631 Dipole_moment: 5.057
 S           0.00381824977013   -2.14952685109399    1.31992852811127
O          -0.96113396669418   -2.02972728051532    0.19717220400081
O           0.02991091647475   -3.43015722791776    1.92689776185467
O           1.32329361758103   -1.67831216361076    0.83931796934250
O          -0.46329098268718   -1.10596107266699    2.39632505573131
H          -0.59613107473541   -0.21987071545655    2.00484718069792
H           1.35947242729759   -1.77385149314947   -0.74410743498621
O          -1.03121849933860    1.40393390571782    1.49622929192371
H          -1.71270633405067    1.65807381833773    2.12025919820862
O           0.41770226506518    0.86212177183589   -1.83259566017449
H           0.24736353420750    1.78283725283174   -2.06405642149114
H           0.91047228373571    0.92595769884058   -0.97161893128225
O           1.56772796886418    0.92345580105863    0.55726003712334
H           0.87879549884125    1.26303229120413    1.14099458464461
H           1.62941957908191   -0.03534872214739    0.76023159250300
O           0.05045923684764    3.30721910230431   -0.54634263894311
H          -0.42657769941627    2.87439116722218    0.17264316850948
H           0.94888727386870    3.43210216299782   -0.23272021964314
O          -1.98087683121828    0.27517331185570   -0.60255003789825
H          -1.79827155882405   -0.64409837877855   -0.31514932915298
H          -1.50618267726459    1.04003024013256    0.68221712605014
H          -1.26362582650591    0.50246182525252   -1.22366049075415
N           0.76485634503275   -1.80206524213665   -1.62795081718789
H           0.71046733633612   -0.85395140652273   -2.03685657004528
H          -0.15473415952983   -2.02261540611581   -1.11801684125964
H           1.05210305725750   -2.50530438947199   -2.29869830587418
