    26
        -50.44726195  Gyration_radius:  2.42896331898 Dipole_moment: 3.225
 S           1.26601635790301    1.50119513149351    0.28005980465478
O           2.39830480677650    1.11976142448692   -0.51952163539074
O           1.09930408552556    2.87031127227404    0.61274802937690
O          -0.01092745982086    1.00155219813636   -0.45697925902552
O           1.27487594018108    0.69044349979869    1.59493034548562
H           1.02582396628979   -0.27259644595584    1.42337837420182
H           0.19072976214180    0.46760195044890   -1.27731477412245
O           0.47976755121046   -1.68756499367119    1.13074919994290
H           0.50008699940783   -2.21710455920430    1.93005967996616
O           2.27843775667636   -1.51307588255840   -0.99417685901352
H           1.74418608408912   -1.80407698103212   -0.24019136579385
H           2.58340171582749   -0.60994280728176   -0.77800942374937
O           0.51708742526358   -0.44487325241648   -2.55082550175094
H           1.20495656622176   -1.00227216154900   -2.07855525105126
H           0.99940634538367    0.10122450891334   -3.17479445902613
O          -2.13771022358806   -1.07881591722887   -1.76374407183087
H          -2.26826844195361   -2.01180078487604   -1.94293378383978
H          -1.29236800462053   -0.83351866303020   -2.16370366019560
O          -1.86186428545937   -0.74022230578485    0.96170268321811
H          -2.07811383226206   -0.72224040814307    0.01119908005657
H          -0.49622566671558   -1.36678087811588    1.03198590847160
H          -1.75038608438298    0.20302444602693    1.23912072215335
N          -1.46690574971476    1.82871734912304    1.84234742840873
H          -2.24851582206725    2.44230437583259    1.64520396081806
H          -0.64648810265521    2.22543954923878    1.39539886869244
H          -1.30461169970208    1.85331030502470    2.84186596930666
