    26
        -50.44073499  Gyration_radius:  2.4498532202 Dipole_moment: 6.012
 S          -0.10789609877704   -1.81323455161282   -0.91231314710554
O           1.00541412616046   -2.19931745907828   -0.10164469745894
O          -1.33744319436233   -2.50075172788374   -0.70700501013558
O          -0.34751393417730   -0.27341474217283   -0.75825631580666
O           0.30714691359797   -1.86276626678366   -2.40145608025408
H           1.07338373768701   -1.22405380864782   -2.43269376862819
H          -1.16320010523680   -0.00817228991614   -0.25295149591464
O           1.71989962470495    1.49446118152241    0.03998602072736
H           2.51328089679177    1.93841022719107    0.34648458435345
O          -0.63597649400072    2.83887358159706    0.00865551851568
H          -0.65946076965890    3.19893409004217   -0.87920151611702
H           0.20822451536912    2.34243914052287    0.07584604940354
O          -2.38981845805794    0.87287973591506    0.37306517265424
H          -1.82992505857016    1.68648290464902    0.37803797019905
H          -3.07825223513592    1.00878028545082   -0.28081785536896
O           2.06473216495585    0.04865267690434   -2.25757968090810
H           1.90852217911996    0.49029898988311   -1.39302887655821
H           1.83553587338863    0.69166011812737   -2.93210208454225
O           1.34222583452173   -0.36002056266041    1.79147929644241
H           1.52926584143546    0.78568660881880    0.73382566396596
H           0.41731213570921   -0.49715301216357    2.09205244610515
H           1.48264843736562   -1.12005938517796    1.19988138589574
N          -1.21511776177018   -1.26814735477650    2.09580839888765
H          -1.92941987518704   -0.57289105772461    1.91145334396233
H          -1.48047333732920   -1.76726778073305    2.93597590439186
H          -1.23309495855441   -1.93030955129637    1.32649880326895
