    26
        -50.44073502  Gyration_radius:  2.44995636157 Dipole_moment: 6.019
 S           0.49360253189290   -1.93089863355544   -0.40074352002332
O           0.46808848393973   -1.56795625845822   -1.78397115133759
O           1.74200825298554   -2.34246721272044    0.14575216370734
O          -0.07633955225530   -0.74777199534488    0.45240878439734
O          -0.59942341423092   -2.99216745441901   -0.13410217162368
H          -1.43216731776039   -2.51892993655664   -0.41463881816715
H           0.58635081183196   -0.25160026248667    1.00540187504982
O          -1.83925195060090    1.18237125933022   -0.64380802079340
H          -2.39229928197603    1.75736145007432   -1.17672704918791
O          -1.08454415296670    1.97738795757916    1.83790183171452
H          -1.31486161073225    1.72068321634234    0.91886541687132
H          -1.77178070345324    1.60758109018445    2.39432802160929
O           1.25329877581030    0.74098583812594    2.11989765547194
H           0.47954432013542    1.35260731754248    2.06810464060719
H           1.23477021025331    0.33660269815239    2.98945991911435
O          -2.62007300494653   -1.44023660482280   -0.65497268445700
H          -3.20447363805504   -1.47617689930653    0.10537840902816
H          -2.25571343750403   -0.52721810893720   -0.67825503132942
O           0.38113729181418    1.08653862435827   -1.95195010122120
H           0.35158754912533    0.14049930317470   -2.17858809401466
H          -0.94772744925455    1.16021436655508   -1.11763838486366
H           1.20533702906403    1.14879112013423   -1.42148063844485
N           2.63466155811861    0.51265438180659   -0.52023955529984
H           2.61123435290596    0.83206276136459    0.44152462959538
H           3.54688676783478    0.73795867598740   -0.89774855243132
H           2.55014755802317   -0.49887669404461   -0.50415957395095
