    26
        -50.44257912  Gyration_radius:  2.60481554223 Dipole_moment: 5.156
 S           0.72606865199729    1.43752675773617   -2.31647816305486
O          -0.33724998519003    2.12916696846409   -1.63110439620736
O           1.39912134777512    2.11412171276868   -3.35880820056644
O           1.75015608480416    0.98334350082735   -1.22401812914628
O           0.19538881222301    0.08615604365179   -2.85959413501299
H          -0.37902928098135   -0.37311448896823   -2.18704227589876
H           1.36345607227340    1.19852819232295   -0.32678094238649
O          -1.32817645716884   -1.19437902414613   -1.18574984290401
H          -1.76744953894190   -1.88143948681646   -1.68911791034126
O          -1.65765769460946   -0.58414972926619    2.55366030705752
H          -2.49435777892424   -0.80495097079620    2.96466911582983
H          -1.83621816457028    0.12002433499237    1.91329343619206
O          -1.83416635599454    1.04378654718357    0.26962352112381
H          -1.53800551710488    1.66507375289639   -0.42248771432950
H          -1.87887264072576    0.19715642241207   -0.20814164372943
O           0.69116056655606    1.55755576199402    1.07227888921212
H          -0.24536789760340    1.29144819463922    0.92115135640061
H           0.68557978778571    2.51582596054188    1.12327476419661
O          -0.25235674556343   -2.26249941871886    0.85906907576020
H           0.68816306168259   -1.95277944301661    0.88559303086855
H          -0.69762133003731   -1.78823616440956    1.58382980619776
H          -0.85961273917976   -1.66640909791149   -0.40767978566792
N           2.18925923010198   -1.13154720283459    0.91418993846536
H           2.43421908902360   -0.82350539173976   -0.01999499908681
H           3.00104645736561   -1.57774806682973    1.32156067879407
H           1.98252296500937   -0.29895564497553    1.45480422823463
