    26
        -50.44538860  Gyration_radius:  2.62782837191 Dipole_moment: 8.033
 S           0.23726958110077    2.31517471997942   -1.81385230873611
O           0.81601505452731    1.62085405794139   -0.67938667363154
O           0.99932526545574    3.35162411138388   -2.39065805589726
O          -0.13915690932105    1.28074037113812   -2.87996159181492
O          -1.14566108700167    2.89117117155530   -1.33416990500456
H          -1.50048863141618    2.35189534153286   -0.61557704916223
H          -0.73414514964565    0.55132664570441   -2.47097267900580
O           0.03287209743294   -2.27080333132694   -0.55923809323870
H           0.34392426517483   -3.10719117521326   -0.90634738628499
O          -1.35813794959916    0.92403953348282    0.61636037496865
H          -0.42390117825990    1.11296879983584    0.40069673729349
H          -1.34220360593425    0.14630834160428    1.20820005350967
O          -1.16517819808843   -1.54361419413414    1.76795468974907
H          -0.73221077077222   -1.90773821632177    0.96721781493943
H          -1.98459174666407   -2.02766313413521    1.88048345984755
O          -1.57923532252582   -0.42187726989145   -1.68814268212958
H          -1.02271364822414   -1.19019733215291   -1.44723859911293
H          -1.73243170869013    0.05019978148241   -0.84139926244655
O           2.04986917009960   -0.73544356798410   -0.14106423481031
H           0.85650922079830   -1.69349497667119   -0.43953424704030
H           1.78537948790875    0.13987881363447   -0.46768875391915
H           2.02055128857326   -0.64701343483064    0.84122806280947
N           1.53320197782055   -0.35123330393876    2.50438690711061
H           2.12472923059965   -0.72527973468918    3.23482114718081
H           0.61082100838665   -0.76168777939711    2.60426377314510
H           1.44958826838608    0.64705577155372    2.64961853184243
