    26
        -50.44073504  Gyration_radius:  2.4499602427 Dipole_moment: 6.016
 S           0.82219300276128    1.70384226214514    0.74449994835583
O           1.49401287713089    1.83573748322203   -0.51132850147072
O          -0.12447147794830    2.70933074461096    1.08998307702560
O           0.13021918626528    0.30067825170026    0.81315681297016
O           1.87247275628609    1.52947000644433    1.86639574879744
H           2.35991900994147    0.70697196920169    1.57998866086929
H          -0.86387403834938    0.30298037390450    0.76018185814174
O           1.02809689520800   -1.89593300288682   -0.73685551749582
H           1.43674510504999   -2.51331905916323   -1.34702580029226
O          -2.42856824333980   -0.16609175734511    0.82896669412758
H          -2.17991386775082   -1.09775653625962    0.61570497180661
H          -2.74529247632930   -0.15929897121528    1.73428717337864
O          -1.31550442417705   -2.55365382593776    0.46104771845174
H          -1.02543077675953   -2.96021818764633    1.27905058984036
H          -0.49745339300410   -2.29960990109129   -0.01837750542826
O           2.77078663554461   -0.76922775117484    1.04670495846589
H           2.12038772234623   -1.08777523535041    0.38157400287484
H           2.71248344406045   -1.37412841984843    1.78944846662484
O           0.40842674845797    0.11553295571178   -2.22696231159492
H           1.00561729452787    0.76457387504093   -1.81535747172114
H           0.74097152020418   -1.11292753151779   -1.30638803737634
H          -0.47443387663187    0.51789288416074   -2.07466834841465
N          -1.64593429115466    1.69866308233148   -1.37150882368621
H          -2.12099569809803    2.31075122780176   -2.02350727418595
H          -1.12651205569427    2.28311030824925   -0.72407553052910
H          -2.35394756855881    1.21040475492325   -0.83493556953591
