    26
        -50.45039458  Gyration_radius:  2.44993260326 Dipole_moment: 4.505
 S           1.54585692457529    1.33792060266495    0.19084477045571
O           0.91222679392565    0.55894020073967   -0.85004395082969
O           2.96131353509623    1.37495446229886    0.18613436288112
O           0.94581155874051    2.76005047556222    0.13713450766310
O           1.08665576319488    0.80516474675672    1.57226015413723
H           0.16690776641927    0.40404441931555    1.55071099612487
H           0.16400740352124    2.74641069125369   -0.49966937140470
O          -1.20154354395445   -0.37218959114478    1.61582425201021
H          -1.41060031709986   -0.56485944785121    2.53144863284889
O          -0.96152549985880    2.45665009354752   -1.55774124980893
H          -0.45589013397608    1.89758116730546   -2.15611115635938
H          -1.63272555619158    1.86595061586953   -1.15741552285887
O          -0.92139168653912   -1.24388796138467   -1.77465045204220
H          -1.71521396076565   -0.73566378790810   -1.56996400596106
H          -0.18003594904706   -0.64661381224755   -1.58751729399112
O          -2.63950339117710    0.64043310960576   -0.43261048199432
H          -3.52848971219163    0.86667287717454   -0.15540209677759
H          -2.16786592221015    0.29833266779011    0.35374779710611
O          -0.30586075230891   -2.46713275453380    0.53822997226990
H          -0.56300083561823   -2.27678405905939   -0.39007436269241
H           0.67226553458091   -2.32566435758082    0.56341518923467
H          -0.86725872884090   -1.26783515559899    1.20292511864959
N           2.29177432405215   -1.68324417198153    0.46325356384024
H           3.05771723933885   -2.26063003395410    0.13707343744828
H           2.59977397863715   -1.21962736081357    1.30957231778798
H           2.14659515766680   -0.94897363583785   -0.22137512773795
