    26
        -50.45039431  Gyration_radius:  2.45005281406 Dipole_moment: 4.504
 S           1.26374102196032   -0.66233866046755    1.47617983684590
O           1.34018026451555    0.10088559197280    0.25008616931932
O           2.27686851410403   -1.62827030893521    1.68940607423027
O           1.19161178279935    0.34405762832070    2.64569288051230
O          -0.10624236329533   -1.38511762627230    1.53808264505115
H          -0.83150923409281   -0.89212622031210    1.04981399143007
H           1.05971360424611    1.26548568003558    2.25791280687401
O          -2.01643064377417   -0.28867216917098    0.20706284351774
H          -2.82035800984833   -0.77243763314068    0.40427218052630
O          -1.43914225181523    2.34385630226302    0.04370349610836
H          -2.20435534543342    2.88196144356988    0.25169074004651
H          -1.70779275849434    1.40748326928903    0.13738144570021
O           0.25916989118160    1.22117560507283   -1.99573545472733
H           0.79136644541495    0.82932182022905   -1.28539786380559
H          -0.32786934852855    1.84829323277737   -1.55709500204034
O           0.90484368126957    2.57237524666684    1.39818120628242
H           1.54128434599025    2.36584745774724    0.70650007086340
H           0.03064598885950    2.56356614373990    0.95620307741984
O          -1.12309182938091   -1.08450751201526   -2.01133396332883
H          -1.70130547960398   -0.62386473189332   -0.72703957060443
H          -0.64169511155897   -0.27062871727893   -2.27561077302645
H          -0.41508201283019   -1.72183251943638   -1.74661597125692
N           0.94227252545127   -2.52929905132549   -1.00451900744668
H           0.69676027810952   -3.06492782971811   -0.18053887777825
H           1.46201346758487   -1.72485355621884   -0.67033368289124
H           1.57440259717431   -3.09543288550020   -1.55794926782123
