    26
        -50.46455192  Gyration_radius:  2.48437008679 Dipole_moment: 2.469
 S           0.76375737848620   -0.17409569601831   -1.83145472487319
O           0.71097087510097   -0.66243991064326   -3.17446489509149
O          -0.22249342179826    0.83529726516993   -1.49764313792784
O           0.85863512540254   -1.20878300182042   -0.80408628310449
O           2.19017203330737    0.60396778574415   -1.71252887896880
H           2.59385200984980    0.43750270588401   -2.55938558165594
H           0.99801972499208   -1.11512029781074    0.77972862518131
O           1.13068874112727   -1.02335027971280    1.75826810785992
H           1.48437751505355   -1.86281576196585    2.05537335046266
O          -1.53112343015818   -1.78145103922697   -1.84085987389356
H          -1.39315386933954   -1.40514686086845   -2.71411003473577
H          -0.64935503424375   -1.77715771714532   -1.43621177543416
O           2.31749222242292    1.35392165381734    1.02531725260785
H           2.44946781540935    1.14153207532668    0.09123949799248
H           2.10185965187359    0.50959011955772    1.45991238967318
O          -2.87663224915426   -0.78834641169042    0.29702987165355
H          -2.39707512879105   -1.03171268586092   -0.52046433386572
H          -3.53844155109848   -1.46999882262123    0.42281123761527
O          -1.31655769993837    0.14024788926559    2.28237089899176
H          -0.76449851531695    1.36222487684176    1.49606075167595
H          -1.93856939319965   -0.23604591063009    1.62337052551411
H          -0.51831010781375   -0.41562285844154    2.25484559799364
N          -0.25396123151921    2.02101676822862    0.81902322271030
H          -0.63154012687888    2.96078584054651    0.83918196884771
H          -0.34038729493332    1.59232095232203   -0.14801746839699
H           0.77280596116278    1.99367934175416    1.03469366913953
