    26
        -50.46455197  Gyration_radius:  2.48432285469 Dipole_moment: 2.467
 S           0.30349730696736    1.62568958437780   -1.11178781927427
O           0.24070142007280    2.32563764145920   -2.35724855418196
O          -0.97706735473658    1.33836339009917   -0.49489194060621
O           1.18968397052173    0.46384031089190   -1.10347784438414
O           1.02565268791273    2.65480971402752   -0.07579009569736
H           1.25704343808808    3.39087215273877   -0.63480303843620
H           1.59420996180883   -0.55006716586373    0.05601707134495
O           1.86249257219488   -1.13547266373453    0.81029105936649
H           2.68175835017445   -1.55285678179892    0.54078747675225
O          -0.61702241257053   -0.32553433331233   -2.89937322208480
H           0.17150048285969   -0.14738146976672   -2.36288612938432
H          -0.91105380246496    0.54367543841101   -3.18442677866498
O          -1.78211288131463   -2.09133840927105   -1.19864000476348
H          -1.90042793016339   -2.84553199170055   -1.77796118531417
H          -1.44087780261191   -1.37133610020888   -1.76668433751064
O           1.30892227123558    1.11832829972955    2.29740295830080
H           1.70792740732605    0.30237527908660    1.94626122684142
H           1.32772537121612    1.75384659200256    1.56883610735524
O          -0.62683890462481   -2.25146597064900    1.22602696383941
H          -1.04815616748465   -0.83208256089975    1.70017768940976
H          -1.05535928634793   -2.28529937418392    0.34409003958007
H           0.31601501340945   -2.07110671548428    1.06633145497001
N          -1.16103855191979    0.22507900146635    1.85038692333504
H          -0.27968326098268    0.59831359741978    2.28116316049802
H          -1.98602573199384    0.45036308390289    2.39329570795054
H          -1.20146617646904    0.66827947119497    0.88690310065456
