    26
        -50.46455194  Gyration_radius:  2.4842948541 Dipole_moment: 2.470
 S           1.11435474590634   -1.60404964814965    0.39063524408596
O           1.58408814867751   -2.91665665491104    0.07215470270343
O           1.56018259450199   -0.55074777579172   -0.50080873360369
O          -0.31658795879072   -1.51478653810556    0.67280781840715
O           1.80193176619778   -1.23642246639198    1.82111959212792
H           2.25551088431002   -2.04197293586283    2.05186689741049
H          -1.22987313081971   -0.28871019669429    1.11862441435373
O          -1.76289213854514    0.48340177825325    1.44010224998168
H          -2.55228523535649    0.11140410402683    1.83573697516891
O          -0.37954242419291   -2.28735029674864   -1.87909366992678
H          -0.52929886775296   -2.11876469805812   -0.93545683444164
H           0.47714835164546   -2.72141137313035   -1.90925957296864
O          -1.12722228419226    0.16425412219795   -2.77250069063100
H          -1.80454289699202   -0.07566840070939   -3.40666964777902
H          -0.74155611926647   -0.68034712493757   -2.46360974640385
O           0.65925941298470    1.27854182321879    2.48738885832849
H           1.10321708467988    0.42124578138185    2.43268655646204
H          -0.28726352651738    1.09469951997682    2.35117846062755
O          -1.49029536691159    2.00601148048497   -0.84548508664796
H          -1.80485105705344    1.50331477447222   -0.07393639307696
H           0.00723304403016    2.11695130543028   -0.44363518762688
H          -1.43411933295842    1.36709169253824   -1.58804691308654
N           0.99968979804347    1.95362276278496   -0.06764518463513
H           0.96258142658853    1.93784632002790    0.98111054800664
H           1.66219491811899    2.63208403170424   -0.42390809970177
H           1.27293815369328    0.96641862302158   -0.34535654712701
