    26
        -50.44384349  Gyration_radius:  2.49514416233 Dipole_moment: 5.860
 S          -0.99675773851788   -1.10542813927677   -1.95740858932681
O          -0.31480887093550   -2.11128471857008   -1.18529249946366
O          -2.02748001355292   -1.53215042017201   -2.82821049266477
O          -1.52328685229149   -0.04223368753055   -0.94336327786020
O           0.03249002803724   -0.27561027277890   -2.76997937526725
H           0.58879558110789    0.25465840078356   -2.14423214925416
H          -1.45350070793970   -0.50965016386491   -0.02655419707712
O          -1.32210434527659   -1.24884590868978    1.25367269599451
H          -1.07179504973204   -2.09123823860999    0.85777847047725
O          -2.36146378866470    1.51400540773055    1.21810201750135
H          -2.36788358615407    0.67878248420424    1.69916697047346
H          -2.55067414143560    1.28699817013373    0.30050204800915
O           1.42197842608324    1.31989273388837   -1.22266360052329
H           1.51039150697590    2.11401751350649   -1.75383396205569
H           0.95910064288191    1.58439953402426   -0.40075748452313
O           0.20389856881844    2.19009386526817    1.04574787697717
H          -0.76121274571927    1.98004481691072    1.11018129873828
H           0.32557740664277    3.03999060955950    1.47119989184342
O           0.90540195580918   -0.29681239740056    2.13473490647381
H           1.49149060477765   -0.71629810852838    1.45004452082213
H           0.83377400997153    0.63414062104421    1.87905771569022
H          -0.47696409766562   -0.90570318576821    1.69517531067773
N           2.17491921792560   -1.35100540007270    0.03248941807356
H           1.37255882746087   -1.76836822009981   -0.43880009601088
H           2.90473549627486   -2.05024075294587    0.07653134815340
H           2.50281964511489   -0.59215454273662   -0.55328877588058
