    26
        -50.44563153  Gyration_radius:  2.58824455502 Dipole_moment: 11.549
 S          -0.60153603017093   -2.16575652089562    1.47922386510796
O          -0.57392199172744   -0.69507250081129    1.67753976891225
O          -1.60213437767865   -2.81172475161502    2.25554306157959
O          -0.72471217321300   -2.41359019157853    0.01657707462834
O           0.80718384632087   -2.68764042434570    1.90443857932942
H           1.40961371345345   -2.47983029468724    1.15457559722518
H          -1.49040422186543   -1.21395677228862   -0.55847068244019
O           1.94471738545912    0.72384010389141   -0.76120716312132
H           2.83514605227002    1.07069916489185   -0.82910120004080
O           1.85710480279556   -2.04483726448326   -0.42957504179385
H           0.91988731048452   -2.26882705212282   -0.57573889975672
H           1.93470354504169   -1.08649395891730   -0.56717589135563
O          -1.07116289760095    2.85023482433777    0.05560053356746
H          -0.79938714986828    2.56829965210506   -0.82835925848281
H          -1.09231081992239    3.80801437573422    0.05495662328602
O          -0.19981793043321    1.34514586127257   -2.16541387552948
H          -0.08885694146419    1.09359773457521   -3.08342686183618
H           0.64937498852628    1.11954574139987   -1.70878110863125
O           0.90927406043175    1.46416926157518    1.46885552844815
H           0.46324778651045    0.63854096504936    1.75303426290012
H           1.60070738448396    1.00475907829840    0.14937111656066
H           0.18598167255501    2.04858924078819    1.18803457321617
N          -1.78827691044969   -0.18288369206523   -0.48151204943626
H          -2.79254341450155   -0.05122022022741   -0.50960927410117
H          -1.29642263296854    0.42004771804576   -1.16468827195370
H          -1.39545505646028   -0.05365004794110    0.50530900373097
