    26
        -50.44384350  Gyration_radius:  2.49511676299 Dipole_moment: 5.858
 S           1.04000888336180    1.45105286661898    1.69075344934901
O           2.03821718515630    1.14866393371736    0.69827580217010
O           1.22272734056190    2.61629984752382    2.47289701730091
O          -0.33342084379290    1.48230198459136    0.95016704295335
O           0.85324215867113    0.23690911413235    2.63893824218728
H           0.45151730601952   -0.51339395289972    2.13112380989150
H          -0.08211266739556    1.53768108439221   -0.04868174769602
O           0.35898707053985    1.61536272506968   -1.46357739413518
H           1.29743477987311    1.72114031192844   -1.27110918862175
O          -2.12208056150086   -1.06701870963594   -0.53989881469282
H          -2.93337866007414   -1.52169845568469   -0.77053495938399
H          -2.30973679738173   -0.09881443534283   -0.62430172436591
O          -2.51485984041635    1.55034111584698   -0.79110797431581
H          -2.18502830958146    1.86488224651490    0.05833790983733
H          -1.86733461454004    1.83872261510481   -1.44424362005387
O          -0.39127420405744   -1.73711642523087    1.44554542042161
H          -0.98084005270924   -1.45531521795372    0.71568425125847
H          -0.95903281230134   -2.08432969218852    2.13667729254338
O           0.15003135274930   -0.85470250777102   -2.16973239671242
H          -0.66096093821075   -1.12009584912024   -1.71251980487745
H           0.27296191431982    0.67836045153080   -1.84001714758083
H           0.89580768008357   -1.20025997093759   -1.61038983514958
N           2.03048459278312   -1.51153766149506   -0.38825194932257
H           2.92634918284435   -1.92769151992556   -0.60680995646324
H           1.59753005588335   -2.06467071950192    0.34186920776251
H           2.20476078912555   -0.58507315928766    0.00090709768581
