    26
        -50.45400589  Gyration_radius:  2.46753908201 Dipole_moment: 2.266
 S           0.35648151127254    0.98618096514020   -1.05691418140758
O           0.49208882697538   -0.39636582460452   -1.43609776673347
O          -0.95953259647644    1.52363870353562   -1.21085239583930
O           0.83390636942454    1.15908451965997    0.40144435947330
O           1.35551437818659    1.85388052866432   -1.82011487681862
H           2.26801481309988    1.55212594477586   -1.49458522169695
H           0.67452484686488    0.33172900124355    0.99367951763928
O           0.48244971586513   -0.84601058853810    1.89096247271706
H           0.53958622046961   -0.54503439249022    2.80068220834083
O           2.53703547385304   -1.38265691482873   -0.04574477849907
H           2.09005770443421   -1.47042476264624    0.80462658194558
H           1.81580032024482   -1.26756859140926   -0.69018769217628
O           3.48872819494014    1.00007968362415   -0.71462019038004
H           3.28321136232083    0.05997999452124   -0.47681266650720
H           3.52054674542237    1.48546639667216    0.11342809898477
O          -2.31484089254600    1.55670808532948    1.10923548972787
H          -1.81872215499174    1.60847532880522    0.27000408390526
H          -3.13217048452861    2.03703137941350    0.96667823753851
O          -2.01158464591637   -1.11484693379461    1.50442197308570
H          -0.51164070556947   -1.05730729011900    1.73980379846911
H          -2.24663608612406   -0.16768092058823    1.52288807472071
H          -2.14121851347931   -1.38025984175015    0.55948347917488
N          -2.19400473481757   -1.41897880847963   -1.15959420146676
H          -1.22718214223826   -1.17711982138494   -1.36538495618876
H          -2.76114482986721   -0.66784210878661   -1.53378110510870
H          -2.41926872678630   -2.26228375170513   -1.67264834284078
