    26
        -50.44768845  Gyration_radius:  2.67881638186 Dipole_moment: 3.498
 S           0.82503656379864    0.87513435852145   -1.41095490751976
O           0.33860552908383    0.56738141022577   -2.72312202970888
O          -0.06741883512341    1.52457952758828   -0.50684878112479
O           1.34990428527064   -0.44461054632519   -0.81028303258749
O           2.11082985150588    1.74221839984540   -1.52545673949174
H           2.64807907513451    1.31295812316667   -2.23290844020106
H           1.22722077030597   -0.54311889086792    0.21574274705912
O           1.02418795597424   -0.82683966102619    1.64847702892503
H           1.60403831455917   -1.54814370797126    1.90090638457775
O          -2.49541007059109    0.28964450172270    2.74165540510273
H          -1.74152106446583    0.89770550783269    2.56101539615350
H          -2.67446775556966    0.35628730529289    3.68023380778164
O           2.86969115083106    0.09519349348600   -3.41013828040201
H           3.06091617747112   -0.76488123097506   -3.02774714041418
H           1.90583042265716    0.12944650867751   -3.54096373561386
O          -0.23480139919552    1.64094449366558    2.22903233217531
H           0.39163017213993    0.91076889261544    2.30912475582869
H          -0.25970500116787    1.83567987330920    1.28008482266317
O          -1.31531448103308   -1.75867698481902    1.46117566220050
H          -1.53084309130518   -1.55258311512186    0.51976141427656
H           0.06596664312873   -1.23027249974385    1.61236333936939
H          -1.86110697908495   -1.12763954984514    1.97818762760568
N          -1.78052900173363   -0.77479219039589   -1.01983719457526
H          -1.12452138883571   -0.96410962913143   -1.76828835165083
H          -1.62187815155850    0.19132235705287   -0.75247443618195
H          -2.71441969226971   -0.83359675680111   -1.40873764422990
