    26
        -50.46455162  Gyration_radius:  2.4220686423 Dipole_moment: 4.952
 S          -0.44956879947504   -1.09856315433710    0.57930647198265
O          -0.14655189304395   -0.38417639252195    1.80935460269612
O          -1.71107656673765   -0.67186430045569   -0.01651514501086
O           0.65072967585181   -0.94108991296299   -0.38223802168723
O          -0.59031596272714   -2.60823636696770    0.88276367776390
H           0.25525366199269   -2.81003515074238    1.37635865599165
H           1.21994395293561    0.55346738658511   -0.56418718959599
O           1.49059794944033    1.49875528179033   -0.70445665394576
H           2.40858878756120    1.47614031336851   -0.97800121985283
O          -2.07109470815661    1.80406085401781   -0.26632299455231
H          -2.07820257212308    0.78458475443953   -0.13938525830151
H          -1.38418391376213    2.11793483178738    0.45911010951055
O          -0.75521561693829   -0.73089666895879   -2.64507802899168
H          -1.61257290314991   -1.01554790105772   -2.31577605977640
H          -0.13984905579588   -0.91761574709856   -1.90807359512762
O          -0.19290188680625    2.19937975552671    1.35653850330049
H          -0.18022467323463    1.27811324039721    1.71032641453303
H           0.56287440799250    2.23989553878522    0.74804741508809
O          -0.66340219557603    1.88924302583419   -2.32476708894055
H           0.21099331938768    1.94005565127832   -1.89367768398782
H          -0.73423569299606    0.95126826607369   -2.64012509149329
H          -1.56137596893423    1.93394013764466   -1.20060882339913
N           1.67567276905261   -2.51258062976938    2.15566404354682
H           1.99409427688858   -2.96874801366126    3.00057494780972
H           1.34641878091396   -1.57809768353712    2.38385673256650
H           2.45560485743773   -2.42938711546692    1.51731128987267
