    26
        -50.46815421  Gyration_radius:  2.4761424242 Dipole_moment: 5.894
 S           0.22350975504226   -0.61004148227952    0.92994573202556
O           1.11121689851404    0.53284442599178    0.76176584130830
O          -1.18019786823730   -0.22294351265685    0.87782241430837
O           0.50767755405501   -1.63570084522481   -0.08279965523192
O           0.50702217265743   -1.26266172772640    2.29944549953336
O          -1.03956142156624   -1.85356330646853   -2.24992050855770
H          -0.59835329606411   -1.88310393680633   -1.37450207605805
H          -1.80804054988945   -2.42157846290947   -2.18046409967835
O           0.95926024704778    1.67970122122972   -1.60521598563213
H           1.39086474351722    0.38802376022232   -2.11092023918283
H           1.10671518075589    1.48379593836853   -0.65317921319509
O          -1.68333413114769    1.48836546049610    2.83434418858044
H          -2.43816373318782    1.15287059645166    3.32061058597602
H          -1.57783806857893    0.90243360041311    2.05416113645129
O           0.88782413013283    1.00930067450946    3.40300268341964
H           0.68485533411441   -0.47128114071728    2.89146617873278
H           1.24812548085751    1.25963050154381    2.53914726246708
H          -0.03208776998791    1.34929938784467    3.40293710925467
O          -1.52168661646159    0.81088051469652   -1.57357666067393
H          -1.51897028916032   -0.02974022129883   -2.05658424912068
H          -1.53355217808925    0.55036024765912   -0.63261502199177
H          -0.02302032104250    1.59907733272488   -1.70508082643595
N           1.57323718285853   -0.70104515454832   -2.27163298362571
H           1.31909841218073   -1.13361827761680   -1.33355581542013
H           2.52942452352902   -0.90929206686980   -2.53642403596896
H           0.90597462814895   -1.07201350702699   -2.94817725128419
