    26
        -50.45066196  Gyration_radius:  2.40425757945 Dipole_moment: 4.813
 S           1.28965191251187    1.38905025876059    0.19664582978044
O           0.88523489625038    0.45167325934664   -0.85345657805898
O           2.69187322330897    1.63428508203638    0.23359806426659
O           0.50503434481044    2.71191226307751   -0.08210179774014
O           0.76344343363423    0.89613479228292    1.50266845005172
H           0.50242607033380   -0.49663695689072    1.47166636297954
H          -0.39648864654157    2.36176642045312   -0.20298168793929
O           0.32359955873629   -1.52431722953164    1.28753575801863
H           1.13784946550091   -1.77191880013647    0.74651355330703
O          -1.90585444317330    1.48230834455390   -0.08114126916618
H          -1.92773317988023    1.50006825455649    0.91099140647364
H          -2.66427513659825    1.98626028843455   -0.38312127159998
O           2.43742664476808   -1.51360795650774   -0.19695288368565
H           3.21460144831210   -1.12622183368536    0.21223566408897
H           1.96473295341765   -0.75305476030718   -0.61274892269891
O          -1.59281714764523    1.45609187808689    2.52545162969823
H          -0.63578419853601    1.37948344523837    2.31445516695858
H          -1.81369852667492    0.67867472494767    3.04250318827405
O          -1.56291567734839   -1.28179652748636   -0.30955903327270
H          -1.68099395544597   -0.31413800037529   -0.32176963025325
H          -1.13499008831159   -1.49874208392738   -1.19013025716760
H          -0.52925003001535   -1.49388697857777    0.59893898876187
N          -0.17363196474368   -1.59258767488281   -2.53291159882345
H           0.50584488805074   -2.34283606945295   -2.53536200266219
H           0.31511338916707   -0.74101752734955   -2.26413220023301
H          -0.51839922387652   -1.47694661265735   -3.47683492936423
