    26
        -50.46358808  Gyration_radius:  2.40454442713 Dipole_moment: 8.802
 S           1.19947321426801   -1.47011106049117   -0.01704316014419
O           0.43538875404423   -1.18686923185978   -1.24675705301598
O           1.45020336262830   -2.85246451191244    0.19838662560854
O           2.57706102395518   -0.72188693014845   -0.21831720561814
O           0.57398855225732   -0.78597247113552    1.12414580611231
H           0.10929566262191    0.64207641709321    1.46530198648521
H           2.35848293890893    0.22451884133969   -0.19953321024563
O          -0.09198880201054    1.60862772093033    1.63379339378291
H          -0.11226503236483    1.70720726634669    2.58683293591498
O          -2.16483561737168   -1.24866544314678   -0.48971500041848
H          -1.28643966286287   -1.34558246231179   -0.89743435766782
H          -2.12805809628859   -1.84204655410877    0.28144083395106
O          -1.10893494705110   -2.84164127511684    1.46484829597253
H          -0.49422839219110   -2.09628330358345    1.56225278067371
H          -0.56441209352387   -3.54017956558287    1.09064871945380
O           1.91763226082409    1.96220484745910   -0.08699164245117
H           1.21712651577309    1.95889374074309    0.60676386753152
H           2.67609867358092    2.41819541362357    0.28183675516751
O          -2.11178542179960    1.37550609462191   -0.25643370505448
H          -2.30714148321210    0.40129694891689   -0.28206109707559
H          -1.63092231845725    1.53067884197743    0.57202255660968
H          -0.99203638290022    1.41349522802145   -1.26325047000180
N          -0.09490936550736    1.24797476908950   -1.86371141800747
H           0.16225566208340    0.21468117585907   -1.68023195120479
H           0.67791325968377    1.82098508837945   -1.51667578167339
H          -0.26696225516648    1.40536043500920   -2.85011850468410
