    26
        -50.46376464  Gyration_radius:  2.54628788253 Dipole_moment: 3.192
 S           1.55590990252897    1.64036462578200   -0.39635784770816
O           1.72300420966524    0.38480271156260    0.34312200635842
O           2.52483458669925    2.63983703683340   -0.09175483156058
O           1.76670858896336    1.25936315731537   -1.93871286121404
O           0.15958229991876    2.06812145665377   -0.32409443524022
H          -0.52526027892649    0.90221031057694   -1.22342271635265
H           2.67363391911060    1.50950119157006   -2.07815592852731
O          -0.92082627133881    0.17256425519299   -1.75698974388370
H          -1.04186830949611    0.53210166310204   -2.63686188766323
O          -0.33007660317058   -3.32563923651179    0.14445920108394
H           0.31356043755498   -2.77250952921274   -0.36683452872383
H          -0.39597216788225   -4.15808904574792   -0.32384757352120
O          -1.00425155596866    2.46856117388073    2.01146156309539
H          -0.52837298546772    2.49960976767719    1.15204525512251
H          -1.87829264543129    2.82578271416562    1.84382336189192
O           1.12561468677415   -1.64944458555556   -1.29418174524465
H           0.42092674137721   -1.13367634690797   -1.71829990553091
H           1.54316858943803   -1.00930398779080   -0.69015220034991
O          -2.04966328372693   -1.29327346324366    0.28597825794861
H          -1.84114355086308   -0.81456685160730   -0.53380368184576
H          -1.58260433005574   -2.15519896394131    0.21890503131490
H          -1.08948265430550   -0.61666837763111    1.29624015270776
N          -0.34233081854033   -0.12919564051450    1.89806678924041
H          -0.11483508630698   -0.68659039444115    2.71429800309387
H          -0.68356113460174    0.82257071651329    2.15982880734572
H           0.52159770402686    0.01876565230227    1.30524145817619
