    26
        -50.46358802  Gyration_radius:  2.40472211229 Dipole_moment: 8.804
 S          -1.66542221166888   -0.61405138382224    0.67074719196623
O          -0.51735781089040   -0.57411883899890    1.59623992581138
O          -2.57000675796357   -1.68095675817897    0.92276819781357
O          -2.41326494949268    0.75972038601808    0.89884361860175
O          -1.18637997484852   -0.54500361188152   -0.71750131870936
H          -0.25309570178139    0.36139192750727   -1.54144512434380
H          -1.80622188042304    1.43967736164046    0.56253201198570
O           0.30296928815622    1.04330033554908   -2.01995301401005
H           0.07099936483257    0.96350477747277   -2.94637557993868
O          -0.81857175301600   -3.19824332733299   -0.74511593918089
H          -1.47516140188701   -3.44342334174497   -0.08689296461837
H          -1.02373266742177   -2.26983052784842   -0.94176894204906
O           1.39362163188620   -2.09062909104701    0.41913948067142
H           0.85517216809631   -2.69463640531785   -0.12233807428167
H           0.74143421049541   -1.65317623572784    0.99413077262826
O          -0.68324919003705    2.65538030115782   -0.13537251832479
H          -0.31399919307284    2.17923380277653   -0.91575180125486
H          -1.22373716500810    3.37161906406262   -0.47308254088538
O           2.46944439225137    0.10770273402094   -0.55814988333522
H           2.19848010160061   -0.80871749754496   -0.28530046944673
H           1.88189826168556    0.35408211526094   -1.29007827266466
H           1.86182201071170    0.87922946860028    0.58451803342183
N           1.22208796219990    1.29924981568489    1.36351057733422
H           1.74155104268151    1.50036244363345    2.21031386391734
H           0.48099603900533    0.53332373803837    1.54178816101053
H           0.72972415398806    2.12500874793089    1.01459458790338
