    26
        -50.46892484  Gyration_radius:  2.48101288779 Dipole_moment: 4.970
 S           1.23825506387320   -1.33491718568358    1.20324703974631
O           2.04525164403272   -1.25493183852336   -0.00809446850963
O           0.62946029240043   -0.05447579431116    1.52067412110091
O           0.30278000630746   -2.43758092064344    1.17427547303182
O           2.23981637922178   -1.64262663590324    2.39196729517948
H           2.34313160650144   -2.58283829212466    2.29584770087177
H          -0.89362551293078   -2.12845078491780    0.13275415831599
O          -1.63570148194889   -1.89967392041732   -0.47889312784276
H          -2.04170325615417   -2.73103210480395   -0.72888732207782
O          -1.72640988186984    2.09961841509757   -0.42359226646175
H          -0.86012494036647    2.41828830117955   -0.13701382244528
H          -2.02689501226039    1.50244528173046    0.29767203015824
O          -2.08512223284979    0.15791039697010    1.39277452098086
H          -2.25916921737750   -0.59606550110068    0.81343265958146
H          -1.14448810586495    0.07810962303421    1.62523262383707
O           0.98048790187187    2.31443903942836    0.46432840380054
H           0.84925118102221    1.45052396853196    0.92615658402081
H           1.35202080624999    2.91158408199816    1.11459116800287
O          -1.13368250668357    0.20819572425677   -2.15314516246127
H           0.32744894232832    0.43360740140152   -1.95135965047052
H          -1.37112840654848   -0.59012169378193   -1.64621776380284
H          -1.49555484081431    0.96705188086464   -1.62213938786504
N           1.35933632820562    0.63975463358680   -1.65216266018895
H           1.96780814963565    0.74852634376230   -2.45544024275918
H           1.68283152691823   -0.16315740091559   -1.03387183038883
H           1.35572554710460    1.48581698127002   -1.06213605335209
