    26
        -50.46935355  Gyration_radius:  2.40007394365 Dipole_moment: 3.537
 S          -1.48100839625891    0.93109110764485    0.53633027473875
O          -0.40658837561708    0.66798262085514    1.50972981105251
O          -2.78840512909897    0.73973195004884    1.07762821311195
O          -1.30680066588308    2.41771178660080    0.08778848441899
O          -1.25165037478230    0.11420612680055   -0.67188730917610
H          -0.04852740443103    0.02240770356509   -1.64487789074478
H          -0.39737662534829    2.46445310980658   -0.27267118399263
O           0.74885602886448    0.02666185100287   -2.24823305550130
H           0.41678968361092   -0.16559012687568   -3.12627942575815
O          -2.54137795021821   -1.94332508031242    0.32650274188790
H          -3.11472818048050   -1.41505987121012    0.89463069076429
H          -2.18632634814985   -1.27463944725185   -0.29254587337029
O           1.11267291890574    2.43732603498873   -1.10327436349222
H           1.12674329504503    3.14782684382989   -1.74717164735335
H           1.09554843228827    1.59224513486299   -1.60403784550412
O           2.21685161002339    0.78315067133542    0.96442669489499
H           1.29818858544429    0.81351020713594    1.29633647648449
H           2.27127039077828    1.51303848963290    0.33949974391968
O           1.91040512867333   -1.56795363225720   -0.27822672669785
H           2.23140289215856   -0.77554766310601    0.21177607366320
H           0.69147231894297   -1.94351353392011    0.66572028065598
H           1.58615618296666   -1.20506902747571   -1.11710077129549
N          -0.09592667837477   -1.90089128864946    1.38811365624812
H           0.14079487583323   -2.43025000505945    2.22010414295250
H          -1.02395031046749   -2.18696185260716    0.98783836688983
H          -0.20448590446651   -0.86254211941731    1.59988044122470
