    26
        -50.46892471  Gyration_radius:  2.48114664055 Dipole_moment: 4.977
 S           0.78824136193124    1.69360803467536    1.12955967632665
O           1.94732108054653    0.80947606869779    1.14268323331723
O           0.09401501304660    1.63977588150128   -0.14562711025811
O          -0.07311418076487    1.49563654228328    2.27436854684904
O           1.34789384249467    3.17086499223790    1.25349041914294
H           1.49154836835103    3.22601722076221    2.19166685530475
H          -0.86284811470877    0.09174229500165    2.14290114263360
O          -1.36436024738781   -0.75133776135235    2.02132612651984
H          -1.65564370167948   -1.01696226922702    2.89484138092812
O          -1.51446578719923   -1.21326467788344   -1.95036116120296
H          -0.79427963810407   -0.70067459540678   -2.34133003537666
H          -2.02895776452876   -0.56251702442321   -1.42217635104600
O           0.74573440646607    0.47527583187411   -2.39718312645020
H           0.48052479144352    0.97071958744460   -1.58413406550597
H           0.87444323850952    1.13327168713218   -3.08124822224188
O          -2.42861792209310    0.60817674629376   -0.20546519574697
H          -1.61643614380475    1.14254181204627   -0.19930844080916
H          -2.39368990470295    0.09969136190314    0.61585167327132
O          -0.36485940159271   -2.41433783022988    0.08833910921104
H           0.94598941672751   -1.77676416474727   -0.23159930630294
H          -0.74658600634547   -1.91963446829932    0.83671715255419
H          -0.88979301833702   -2.12565428897443   -0.70529791553936
N           1.81915298590967   -1.18498324585814   -0.52133512924374
H           1.93007801890028   -0.40273318922901    0.19093224493845
H           1.61165062598545   -0.73486385567953   -1.42595136930556
H           2.65705869093221   -1.75307068055861   -0.57166011197015
