    26
        -50.44798312  Gyration_radius:  2.52300197302 Dipole_moment: 2.353
 S           1.61963274803557    0.00464706555225   -0.04704554579062
O           1.59131820613487   -0.55812730823125   -1.37157298332725
O           1.01373760097779    1.29142377029599    0.09751790008617
O           1.00513100733395   -1.00329959777909    0.93010596265043
O           3.07435875316268    0.08566632361649    0.45668881222355
H           3.44708986004059   -0.80532766258067    0.24705951736188
H          -0.02550572594987   -1.18745755551304    0.77563981323873
O          -1.41007489565631   -1.47117372864638    0.57772372646803
H          -1.70210272024764   -2.07467836005527    1.26451270458553
O           3.34028238092330   -2.34115134883971   -0.43359885120297
H           2.81590342920642   -2.94435607598931    0.09925986367667
H           2.74632433024781   -1.97203955879751   -1.10913394327111
O          -0.38031022215859    1.79512455122081    2.34809273228390
H           0.19030140572357    1.62481045067173    1.57618821345104
H          -0.31980556895525    2.73537107685178    2.52584673048713
O          -1.03255678441255   -0.87980838440957   -2.23029153451986
H          -1.34813769407403   -1.30720670592656   -1.42663530258548
H          -0.07683361748401   -0.77798497658403   -2.11960088863480
O          -2.51093951833558    0.73706203578139    1.04212876845797
H          -1.91386185320692   -0.56774406141580    0.76175817769861
H          -1.87661274254085    1.13997535279798    1.66669194174460
H          -2.34550976673409    1.20421013053454    0.17415852384977
N          -1.64263329823147    1.78433134735875   -1.23188944570409
H          -1.61938955010411    0.96119339697593   -1.83398780874630
H          -0.68223582052728    1.95789809253931   -0.95155220195283
H          -1.95756993317102    2.56864172058744   -1.78806488262236
