    26
        -50.46935347  Gyration_radius:  2.40009333624 Dipole_moment: 3.539
 S           1.72666357901709    0.54836924721184    0.25673865745947
O           0.89282644702402    1.24157736644583   -0.74089288961825
O           3.05825572114460    0.30344427894450   -0.19700228636916
O           1.75868327291296    1.47414617161643    1.51511374173049
O           1.04489607910422   -0.68999512731766    0.68241050366642
H          -0.35248677318021   -0.93814116551353    1.30549647658162
H           0.81848440179748    1.58895623669564    1.76415930069296
O          -1.25501032631533   -1.02960945137691    1.72620437951829
H          -1.19559374224517   -1.78076798808877    2.31816167977751
O          -1.70237234702121    1.83913633550598   -0.42247642061570
H          -1.75692782019255    2.05307189299980    0.51426069211756
H          -0.74445032617565    1.76406767314917   -0.60065426599244
O           2.08681657905503   -2.08269371886283   -1.28456704114195
H           2.87742410133941   -1.53553975820225   -1.36318438154083
H           1.73643681630718   -1.81964487241794   -0.41027112861480
O          -0.82134134159049    1.56716308532215    2.29448621283857
H          -0.84601491850178    1.74251648657840    3.23694779934555
H          -1.10243249750862    0.63463794322254    2.16533572894539
O          -2.20144739944170   -0.75057218525448   -0.88139474602689
H          -0.89280897735309   -0.87753809581264   -1.76991298502268
H          -2.02500138296023   -1.05607983118652    0.02195776373213
H          -2.22210014196923    0.23102657046890   -0.79740677014358
N           0.03897415230418   -0.67860488076273   -2.25551613767678
H           0.40775959475343    0.19583615807545   -1.77163469196848
H          -0.09041302061263   -0.52993443540598   -3.25031549343617
H           0.76118026031198   -1.41482794604043   -2.05604369827009
