    26
        -50.46935355  Gyration_radius:  2.40006157135 Dipole_moment: 3.537
 S           1.73007338426047    0.33517053432888   -0.49217524723546
O           0.66902375794866    0.39331100290674   -1.51289757083223
O           2.91207712620681   -0.32380503140949   -0.94775811882217
O           2.05986296054602    1.81723561006595   -0.12300069242372
O           1.18773062475510   -0.27708616492745    0.73692770475400
H          -0.01015644335840    0.10781792648218    1.64220745881107
H           1.20863975742252    2.19360205439998    0.18187539003595
O          -0.78014397455264    0.42140254423223    2.19780417813025
H          -0.56830365397596    0.18302162025256    3.10140373343003
O           1.73004944658734   -2.70934929563339   -0.09003689253626
H           1.60264317965053   -1.92223350277564    0.47620653909639
H           2.47138964054834   -2.44480478803240   -0.64772104930038
O          -1.77422983409780    1.42935190821992   -1.12542416956263
H          -0.88897435736250    1.12401750227479   -1.40491665736619
H          -1.59869749474532    2.17179964369438   -0.53874864051495
O          -0.24959842303826    2.73480433944472    0.92445269470214
H          -0.04353662283916    3.44653595374962    1.53321871967910
H          -0.54299162375150    1.96768969403628    1.46358999850303
O          -2.34176348100159   -0.80255680410264    0.23918365554467
H          -1.94521301725173   -0.51995772996918    1.07788126878846
H          -2.35201949358464    0.01939138513757   -0.30428002646269
H          -1.29058475307890   -1.62937210034759   -0.61477715406857
N          -0.50928703415206   -1.90304269098271   -1.29178601656347
H          -0.04272146652832   -0.97928272585144   -1.54433194577861
H          -0.88121594435810   -2.37121921444847   -2.11089976442830
H           0.24794773974335   -2.46244168076223   -0.82599738558578
