    26
        -50.44238263  Gyration_radius:  2.57203488698 Dipole_moment: 6.711
 S           2.26789297969872   -0.95623964748809   -0.22732720576307
O           1.45535056471988   -0.15914817587687   -1.11806006134992
O           3.31537687368791   -1.70828713989897   -0.80911541313147
O           2.78126182819409   -0.02921261267689    0.90440499179965
O           1.33901699739368   -1.94248974267550    0.53410098026138
H           0.58923518649172   -1.43295795170584    0.94971779391495
H           2.47050534494119    0.90977522453328    0.69005931678765
O          -0.66201585532818   -0.68509696311317    1.61524355298956
H          -1.00868427172152   -1.25713024318645    2.30237831050803
O          -0.52000490687112    1.99889579888813    1.68394714050570
H          -0.40849862680319    2.32278953610848    2.57900337212337
H          -0.54080717624301    1.01807674788569    1.73191866496280
O           1.73237820139589    2.16124685748178    0.12814519812949
H           1.47952376430372    1.64459896402836   -0.65485138144341
H           0.91898709855479    2.25499541364490    0.65854945493483
O          -2.02365985732835    1.94278374075939   -0.70136139840439
H          -1.50293707337457    2.12027013513793    0.09514413645452
H          -2.71339495127311    2.60652772877951   -0.74020833331464
O          -2.27109357439863   -0.76984702450434   -0.32527316068228
H          -1.34413678805373   -0.73778872062759    0.83214730166890
H          -2.27562704163543    0.15824477710014   -0.62155637383026
H          -1.74228896993813   -1.26617300114233   -1.00700739964483
N          -0.56963761671938   -1.97543152750533   -1.99529968333550
H          -0.21672213298918   -2.86237369172018   -1.65711916904559
H           0.17358860938817   -1.29187967051673   -1.85564866100219
H          -0.72360861610382   -2.06414883172451   -2.99193197409228
