    26
        -50.44759138  Gyration_radius:  2.50897578677 Dipole_moment: 5.798
 S           0.90707734999476   -1.87013988833599   -0.33165959425862
O           0.26958799284089   -1.86102191422275    0.96137041674287
O           0.31395653705804   -2.73909492058344   -1.29531753644759
O           0.87171943920964   -0.40239040718118   -0.89857894416233
O           2.39873099706628   -2.10800156292959   -0.19469933906598
H           2.82855219659091   -1.22534644737775    0.17462832197275
H           0.00564985687612   -0.33539438607831   -1.38451166115315
O          -1.47432843345322   -0.75039311301681   -1.92955242590512
H          -1.18353261455889   -1.65700947288165   -2.09905604118205
O          -1.63999316098110    2.01240246299124   -1.92671968110609
H          -2.48831004239356    2.29931353321019   -2.26991369560084
H          -1.56061671446043    1.07236276455428   -2.15011905604147
O          -1.25614657957363    1.94040963770049    0.76830291139112
H          -1.82414165803042    2.63009378379226    1.11610928168503
H          -1.27124142384711    2.03490685209598   -0.20634563558814
O           3.23247038003039    0.11876267348109    0.58876211822044
H           2.49108668312424    0.37419006850986    1.23959070560621
H           3.07259139678269    0.64411212108999   -0.19981992113644
O          -2.13143933593668   -0.68544926833211    0.59029807903376
H          -1.38631681397706   -1.23811860806513    0.88490310757387
H          -1.87826309535540    0.22931583566411    0.81052841564218
H          -1.91241350774319   -0.77538515779495   -1.03175737551577
N           1.15307331761876    0.59636042872431    2.08428535734104
H           0.49357317338055    1.24599350845858    1.66721088684353
H           1.20123765609267    0.78701964453120    3.07664446767074
H           0.76743641364766   -0.33749815801531    1.95541684744110
