    26
        -50.45209646  Gyration_radius:  2.57650994486 Dipole_moment: 6.622
 S          -0.26958904997207   -0.49522468940751    0.97121233593218
O           0.35419948239314    0.80586738452537    0.96821549564972
O          -1.67967431751204   -0.47889566527145    0.74698492314092
O           0.43748977285736   -1.36623545437529   -0.10904774889797
O           0.05821475402406   -1.24681303995940    2.24853268109911
H           1.06208493810497   -1.48167118591850    2.20152536599874
H           0.13255195400561   -1.06620311654770   -1.02908568640239
O          -0.32437461558653   -0.43879586020805   -2.35292075328386
H           0.34779014630262   -0.41574041843033   -3.03674022021042
O          -3.15940402595696    1.56809927805817   -0.64368367348210
H          -2.95667031766977    1.17987472479080    0.21453337806327
H          -3.38925545914055    0.80101190952819   -1.20075382445672
O          -3.04253998194875   -0.98458086933511   -1.64287324465028
H          -2.24630842592344   -0.96690623071706   -2.18560051669838
H          -2.72921943706193   -1.07570755762901   -0.73234903058475
O           2.49485580027032   -1.73636763350352    1.86717514093475
H           2.87301240321850   -0.80890594217892    1.77265254611199
H           2.43462496668066   -2.10262208900814    0.98041085627997
O          -0.61391638858006    1.87519857560983   -1.32919168846530
H          -0.21562178021814    1.70587341770358   -0.45930673566438
H          -0.46114090340384    0.52504720993733   -2.04703628845139
H          -1.58591728432731    1.94643338718413   -1.15732525360754
N           3.15011974482729    0.79452936429130    1.52113065501916
H           3.72544535633115    1.13059457482603    0.75914415678157
H           3.42282451228734    1.29461105427835    2.35768789640974
H           2.18041813629780    1.03752889168344    1.31670928357803
