    26
        -50.44693488  Gyration_radius:  2.45671605125 Dipole_moment: 3.705
 S          -1.71867310012756    1.17791703905730    1.08561412275937
O          -1.20433712415044    1.05963672401087   -0.26346288130321
O          -3.06478909152725    1.59925040862596    1.20469755768426
O          -1.49674847862095   -0.19826833122081    1.79080226064903
O          -0.78718692971121    2.08540108227163    1.89701475899461
H           0.12747683261415    1.67121304974022    1.77827227598040
H          -1.55358339402819   -0.96393244489951    1.15773636786907
O          -1.45015677590219   -2.24812614958377    0.19467350698425
H          -2.25824472029724   -2.76092547255307    0.14779028559021
O           1.14348382834018   -1.79390799103189    1.01671340813413
H           0.24248016869260   -2.07408872615404    0.78274995246368
H           1.40440151389019   -2.30671648007016    1.78333180593945
O           1.67910184112718   -0.87601721755265   -1.61254505912905
H           1.72752277017235   -1.28604001012007   -0.73931534559312
H           1.78008776818328    0.07715407705722   -1.47782038985179
O           1.42339327129079    0.92533765818097    1.36103949812962
H           1.59260623383556    1.23234102127755    0.45407065575330
H           1.28779753440851   -0.03916122887964    1.30660267294051
O          -0.99081679545615   -1.00592974413935   -1.98346215942889
H          -1.18257298833815   -0.14339597314483   -1.57604093506498
H          -0.01083321359179   -1.04264814085084   -2.04980217543732
H          -1.30692973773748   -1.84061160616715   -0.72879214509080
N           1.32047788565403    1.98518091633730   -1.26501311871551
H           1.54305237434652    2.91186244934450   -0.91767810244489
H           0.32955337978177    1.82729051644199   -1.07373131723444
H           1.42343694806628    2.02718455366012   -2.27344549083488
