    26
        -50.44759132  Gyration_radius:  2.5087605368 Dipole_moment: 5.798
 S           1.02543304128181    1.58628625693628    0.92731350377469
O          -0.39388517842936    1.83650985625238    0.96519913706106
O           1.63275223234741    1.33936965335401    2.19450938245191
O           1.27111721577923    0.33352222432066    0.00674574090811
O           1.74402965671607    2.67679214932478    0.15618898940247
H           1.54314682305755    2.53049909323516   -0.86316806650674
H           1.20185030087538   -0.45050311650816    0.61607373824287
O           0.92209609396764   -1.30676233215805    1.97537429960754
H           1.34737856311667   -0.62873411154869    2.51817031640633
O           1.22611637735117    2.08989961575121   -2.22149967219745
H           0.25055625470801    1.80885765620004   -2.13272763605117
H           1.72182716414223    1.27072366208185   -2.30291333683943
O          -1.58581890101271   -1.62320503471658   -0.88269468722111
H          -2.27622864956226   -2.23503145481821   -1.14405836082852
H          -0.79596343466229   -2.16686070597835   -0.68313409250166
O           0.44150581490326   -3.20251553012974    0.01744688174056
H           0.23045446461987   -4.04992829502438    0.41386202192604
H           0.80288471215636   -2.65221935263978    0.72911905948703
O          -1.53672422546444   -0.50844227362218    1.65662658480098
H          -0.05649266087008   -1.10978105460332    2.02237741935939
H          -1.30448262860652    0.42887200617546    1.53412049227357
H          -1.71395641761451   -0.85028407896874    0.76160458992986
N          -1.20131370729424    1.29644269881082   -1.70601435377325
H          -2.02815451220214    1.68212292126836   -2.14296907353645
H          -1.16901515136282    1.61804739327920   -0.74012017302768
H          -1.29911324792883    0.28632215374451   -1.67543271485583
