    26
        -50.44759140  Gyration_radius:  2.50871161854 Dipole_moment: 5.799
 S          -1.24633063151562   -1.60794969248360   -0.53723138974854
O          -0.82698594447529   -0.90168410542176   -1.72202870449857
O          -0.72712243922219   -2.93000149959989   -0.40238239718608
O          -0.79292607335702   -0.76667814801405    0.71326487884989
O          -2.75606636279271   -1.57395098109188   -0.39615171619365
H          -3.02541771571654   -0.60676569104035   -0.09233532797874
H           0.12894717572364   -1.08329893797170    0.91532212380573
O           1.54039273914312   -1.88080428217318    0.74366064385135
H           1.08071339176318   -2.68036344674402    0.45276061833414
O          -3.17093420214778    0.75465364295094    0.42425668556092
H          -2.77590963972193    0.69553952275602    1.29818770271306
H          -2.49964211385791    1.27124553631307   -0.14214383472920
O           2.32422512841972    0.32384990503115    2.22269687342593
H           2.06932246967596   -0.55505611398355    1.90261285869867
H           3.25765596548870    0.27174442670945    2.43696236363976
O           1.53258038060270    1.88739416011525    0.13845615634605
H           1.71540020626743    1.38854056713024    0.96119616851598
H           2.18300551283060    2.59066605258390    0.09800750610603
O           1.80574978278871   -0.41080068376100   -1.39009724179580
H           1.73687739477519    0.47791820053332   -0.99668873616952
H           1.82046697702315   -1.41533990164411   -0.09516716360137
H           0.91877055211892   -0.60870666978883   -1.73883538658874
N          -1.29062240819172    1.81714759123974   -1.03342441517733
H          -1.44445783383446    2.55911333816117   -1.70363600005395
H          -1.11237737625690    0.95458044360065   -1.54483409916223
H          -0.44531495555928    2.02900676669725   -0.51242812698511
