    26
        -50.44406857  Gyration_radius:  2.4979377195 Dipole_moment: 8.361
 S           2.50986536055265   -0.07135969763722    0.34146490527943
O           1.76466040871115    0.38172389261456    1.48805507575178
O           3.64503235539514   -0.88375182266294    0.59377910373953
O           1.48995123590812   -0.86417040679780   -0.57533045474364
O           2.85804424261232    1.10679035197976   -0.56258066019749
H           1.98184828226977    1.63866600298909   -0.63360999464901
H           0.85038290438754   -1.36350186064339   -0.00656331435532
O          -0.25737218914323   -2.12998427114629    0.92505602933609
H           0.15523995966463   -2.90143298841957    1.31670360308183
O          -1.64122086782932    1.31648597449093    0.76602717881003
H          -1.88013870633175    0.55662282309509    0.19897812689486
H          -2.24347532648101    2.02987155451610    0.54996134381818
O          -2.27999563221698   -1.00238874876734   -0.55203729728629
H          -1.55275945667047   -1.51568491953701   -0.15823501451106
H          -3.09294051015631   -1.40769435631002   -0.24404450824121
O           0.58228343786856    2.18630937464347   -0.73130407058988
H           0.19333560287095    1.64573128782011   -1.46901224693751
H           0.07893872648671    1.93411912893822    0.05863685352516
O          -0.47940361933825   -0.28635973049382    2.70150218774508
H           0.43176152594214    0.01972735774094    2.52688640692607
H          -1.03184100615147    0.38206275873129    2.26797287477889
H          -0.38559274621027   -1.46081592879145    1.67740347044139
N          -0.38495745543750    0.41305670971209   -2.49897478538615
H          -0.44286026000927    0.53364475149979   -3.50160852410630
H          -1.24148461415188   -0.02593188834353   -2.18079439966999
H           0.37269835745796   -0.23173534922062   -2.29833190945463
