    26
        -50.45891837  Gyration_radius:  2.68256636088 Dipole_moment: 5.213
 S          -0.38493846985026   -0.87590512002490   -0.50293860811933
O          -1.16900679573545    0.16952403735253   -1.15301447557113
O          -1.22635098463247   -1.78339893254187    0.27623965323471
O           0.51299400630143   -1.55261624308409   -1.39904657902358
O           0.49305372246405   -0.13522281880276    0.59527545979695
O          -0.20633955888966    0.24860590206544    3.18719154069539
H           0.16816930345769    0.21674429628038    2.28483554677924
H           0.32262771824678   -0.35186351999993    3.71534846779816
O          -3.01364178926733    1.44388718485427    0.14419877579098
H          -2.27838825751270    1.03860473333740   -0.38863239279839
H          -3.76087398892327    1.50308624511433   -0.45300364128240
O           3.22839798841742    0.94972345180491   -2.41784545907922
H           4.00164259075670    1.34259750018713   -2.00957826206576
H           3.23482245676117   -0.00136726311827   -2.15582980275172
O           3.12282564941392   -1.58627837218902   -1.59558249854667
H           2.15036084240685   -1.59927070524535   -1.43998495031452
H           3.27356897004323   -2.24005601545889   -2.28087360507374
O           1.06168394340075    1.69417522345559   -1.04952315018138
H           0.25840552208517    1.41575188155814   -1.51207632880267
H           0.84590673301526    0.64098136032423    0.05147340733115
H           1.82758418345135    1.46674117072234   -1.63052414287310
N          -2.52147125631843   -0.40048820464888    1.97635099860742
H          -1.78060723498730   -0.07887251707848    2.63473711897169
H          -2.86256866813871    0.40806615903758    1.39686931178704
H          -2.01858317328308   -1.06351652461599    1.26667678371221
H          -3.27927343270110   -0.86963287927790    2.45925681197283
