    26
        -50.44649699  Gyration_radius:  2.48669263579 Dipole_moment: 6.331
 S           1.95744828341926    0.42072195658511   -0.57216696065129
O           0.65288050075688    0.38290795526563   -1.17922283298918
O           3.02521086459022   -0.19019320584743   -1.27485978264010
O           2.31067805290511    1.89258866311956   -0.25291783067008
O           1.86036041004061   -0.23660510081207    0.83664891178878
H           0.91731039201370   -0.28985278877763    1.17385918316114
H           1.46697966566760    2.40677350842063   -0.13353549820404
O          -0.52116342586754   -0.53577840714905    1.78785116833316
H          -0.42245270268822   -1.00349437917790    2.61877855262831
O           0.10451981709108    3.19663730575122    0.22094233327882
H          -0.67424965732651    2.62533065459951    0.35785308268520
H           0.19008677316769    3.74768680374921    1.00183256657966
O          -2.02690246296855   -0.02483860459129   -1.40590182960571
H          -2.26920744492731    0.64941306432718   -0.75839211253910
H          -1.08636183673648    0.13753711900153   -1.57639027135370
O          -1.97360569623625    1.58287355876704    0.97105235380440
H          -2.75206816656928    1.67689583646418    1.52204579572052
H          -1.46565202482083    0.82045985512069    1.31600102796911
O          -1.36047898915532   -2.16236134661838    0.06375176384603
H          -1.76170889843236   -1.51953174345286   -0.56564325760324
H          -0.52282374189750   -2.45402988933106   -0.37129691276570
H          -0.88639367403421   -1.23593272916337    1.10509634566442
N           1.06181844805976   -2.53024170061511   -1.09483649372585
H           1.84649207836141   -2.59387894209804   -0.45730846770413
H           1.08767353286477   -1.59021349517271   -1.47602861653229
H           1.24160991272528   -3.17287392838057   -1.85721224847727
