    26
        -50.45006328  Gyration_radius:  2.48286177374 Dipole_moment: 2.681
 S           0.76262952639186   -1.48301067890642    1.04220904340925
O           1.34108193161126   -1.46463248559718   -0.27388095731201
O          -0.21726934985533   -2.48532493720559    1.29754030326828
O           1.90092440457756   -1.57648760247127    2.08372648248067
O           0.09818983193426   -0.12440266646625    1.33530722722464
H           0.62615422217697    0.67178656434484    0.97987623908582
H           2.62855135970498   -0.99768742195549    1.71297335122785
O           1.37943728432161    1.87183016881350    0.42403046000081
H           1.19440299570534    2.62985373510212    0.98279603951629
O          -2.43992627678049    1.45824473549512    0.24166826198191
H          -2.28869570035223    0.50237773740332    0.36278475932361
H          -3.30236313520304    1.54114507502562   -0.16924954539904
O           3.38836188597788   -0.01924393990736    0.66164454159134
H           2.92651439389890    0.83240719030337    0.59731319832727
H           3.05567194148572   -0.53708307750841   -0.08600995059258
O          -2.44189205452237   -1.31921353813005    0.30363771533395
H          -3.17047946510280   -1.66452641227626    0.82448124347972
H          -1.64236378044704   -1.75396511628985    0.65401956555245
O          -0.35928303311748    2.02961124042304   -1.40171306808478
H           0.75989799711594    1.98022335241519   -0.39715136409482
H          -0.38645208398806    1.13904322817255   -1.83695705380040
H          -1.13811731127403    2.01056334460607   -0.80936651336944
N          -0.65315040453276   -0.53020045963236   -2.14488442449940
H          -0.66696177236075   -0.92740659713477   -3.07588044419171
H          -1.48855883124667   -0.84479246483481   -1.66296340496438
H           0.13369540393149   -0.93910898399986   -1.64595169551190
