    26
        -50.45006325  Gyration_radius:  2.48284369187 Dipole_moment: 2.680
 S           1.27034922990931   -0.37064782839595    1.45468941896100
O           1.87016095007949   -0.69738770838122    0.18959758696082
O           0.82701447048211   -1.46298198313671    2.25488751746595
O           2.25400758652520    0.51053106578536    2.25791526952847
O           0.04970062270666    0.54158207662522    1.22928673487185
H           0.18917276739377    1.23418335198613    0.49452353551074
H           2.66965672159545    1.11083855363976    1.57320979409310
O           0.36280043234662    2.25077680033675   -0.62485908260967
H          -0.17979373836463    3.01666028652096   -0.42468160841030
O          -2.84453390372652    0.20507960394510   -0.05435666975413
H          -2.29029794380347   -0.42652426141221    0.44077012511603
H          -3.62202487783472   -0.28324309967624   -0.33109429958564
O           2.98320751054144    1.73391666588215    0.10588960438526
H           2.19484941331768    2.17523479169893   -0.24980446442903
H           2.97071231460149    0.85022751764611   -0.29006546752570
O          -1.60761423888056   -1.94868027690748    1.19030250227679
H          -0.72497408252166   -1.78992953439063    1.57336006613149
H          -2.13949190996001   -2.29913249917717    1.90844124818923
O          -1.13119628580064    0.81261098905749   -2.06732970652815
H          -0.72618181585879   -0.09259722837527   -2.06978081331986
H          -1.85806215754009    0.72822596375949   -1.41743172999595
H          -0.18116471220491    1.70310294510266   -1.31337456570316
N          -0.19467785705954   -1.65438301014547   -1.59083735907238
H          -0.83290166711573   -2.04535186679261   -0.90602668420634
H           0.65431351449841   -1.41466927996735   -1.08380831815514
H           0.03696965590738   -2.38744203525631   -2.24942263456183
