    26
        -50.44406856  Gyration_radius:  2.49792268778 Dipole_moment: 8.361
 S           1.34172283361481   -0.40164313594314    2.11173419532270
O          -0.01982397200696    0.01015293854565    2.33949959527344
O           1.87920795813699   -1.36395347861610    3.00463679616054
O           1.40117424237812   -0.96638202645061    0.63294492147134
O           2.25059907935829    0.81761925304107    1.99395543259823
H           1.74124366185074    1.45321152611984    1.36765728226481
H           0.55881784161491   -1.44533005685542    0.42581698538434
O          -0.85983382415281   -2.17197282379644    0.04887699705537
H          -0.89166055669315   -3.02399973200840    0.48682607397470
O          -1.64803764781267    1.41014173555318   -0.55602958251548
H          -1.35863583154698    0.74885444145042   -1.21553757256826
H          -1.87209767955430    2.20833962893446   -1.03667180525032
O          -1.02449137251589   -0.66289665629268   -2.24021688506531
H          -1.77757896770228   -1.00076494263008   -2.72877577853823
H          -0.85893959656338   -1.29722736767209   -1.52075144217038
O           0.91780070426039    2.16862918363243    0.32921408598390
H           1.24083522259656    1.75975161815040   -0.51707234689151
H          -0.00951518934856    1.89393927318792    0.40411821482501
O          -2.38207269531947   -0.51622229593757    1.29196678292883
H          -1.52557403659685   -1.57689723777177    0.53154381101669
H          -1.66785546161835   -0.30227042950237    1.92324409287012
H          -2.40663130908892    0.25501938757217    0.70501444773066
N           1.67300174671279    0.72113451362094   -1.80126597678268
H           2.00772969022128   -0.02589150922172   -1.20129370236110
H           2.40629368402294    0.95456592186473   -2.45773869212536
H           0.88432148575267    0.35409226102494   -2.32169592059147
