    26
        -50.45006329  Gyration_radius:  2.48274767617 Dipole_moment: 2.683
 S          -0.08615760699343   -1.30949809814262   -1.46443813749175
O          -1.33981681193946   -1.28188797966033   -0.76111576723940
O           0.76824794355252   -2.42040471777481   -1.20775739166865
O          -0.36474416896432   -1.19352256575812   -2.98042555822847
O           0.72135534853783   -0.03980737583546   -1.13431553954020
H           0.14871523817190    0.80078820871638   -1.06765831337022
H          -1.12142904956642   -0.54174646463744   -3.04765467746384
O          -0.69333940244463    2.06084927858518   -0.92625770099031
H          -0.15106311631703    2.81547549798204   -1.16610421810924
O          -2.28503909620860    0.47424935444495   -2.54391536623898
H          -1.89298674420022    1.25094107170293   -2.11287605870076
H          -2.51352966650258   -0.12231172699886   -1.81606279323746
O           2.01773638968413   -1.61977762164786    1.04925746990035
H           2.88478586450188   -2.03097423418865    1.02546892120670
H           1.56314450626069   -1.92379237623587    0.24181895413943
O           2.19002790113975    1.12531654654587    1.43897430643484
H           2.07044746224494    0.20611613687448    1.13563572253668
H           2.63241603366409    1.06984108374442    2.28795131132088
O          -0.40984111423032    1.88576220993901    1.57780965157033
H           0.56435011583972    1.79281455086246    1.56831670972714
H          -0.69173135597406    2.04103045495563    0.10789143026521
H          -0.71945412623776    0.97795582671005    1.82962586095153
N          -0.82158651224570   -0.72568453924267    2.02670570420949
H           0.10800013010619   -1.12470330540679    2.10279286032037
H          -1.17350996312312   -0.99747277181063    1.11153107777271
H          -1.40499819865323   -1.16955643371066    2.72480154208998
