    26
        -50.44406857  Gyration_radius:  2.49795200468 Dipole_moment: 8.362
 S          -0.78970978756608   -0.71811344920972    2.29827528711875
O          -1.73207205626571   -0.97009758207575    1.23821028817340
O          -0.70389037848822   -1.69224813427747    3.32585939960209
O           0.62827367411767   -0.55246966068698    1.61185105045712
O          -0.99991469603444    0.67947017924796    2.87197219279907
H          -1.09205906155940    1.28139369976697    2.04441639144587
H           0.70062688594427   -1.17444577491622    0.84388300151624
O           0.79960372376609   -2.14377135907323   -0.47264063196693
H           0.92934592032367   -3.04642050636586   -0.17741143910125
O          -1.02646106707757    0.79926858631639   -1.82241324757742
H          -0.06469498013606    0.62884107324536   -1.86683610602179
H          -1.19895973868150    1.58075619792837   -2.34949908458373
O           1.59225873727947    0.00189529778878   -1.99313675343355
H           1.47636747586085   -0.76388192725945   -1.40357256883927
H           1.83053840673127   -0.35317530389187   -2.85171153131396
O          -1.05196080966570    2.00552648794306    0.72446396814894
H          -0.07688735574108    2.13508788658636    0.58247617610654
H          -1.33239708751467    1.40524645445482    0.01595722583568
O          -1.63134721105526   -1.84087602938957   -1.24898699079434
H          -0.14844072437861   -2.09341071031450   -0.83170197536443
H          -1.92269122564537   -1.66255990401723   -0.33371726909371
H          -1.63040573782424   -0.96431034456218   -1.66317731883842
N           1.60708829464991    1.96231557842612    0.36087080026114
H           2.25879117487298    2.69839910271016    0.59884068261206
H           1.87025788446880    1.58314987899726   -0.54165984158865
H           1.70873975961852    1.21443029262887    1.03938831444024
