    26
        -50.44198527  Gyration_radius:  2.67314677152 Dipole_moment: 8.585
 S           2.40055264674035    1.28028832818418    1.03723592373576
O           0.97674156547543    1.52977977602543    1.00183993005657
O           3.22440778631564    2.28727658740940    1.59530937006572
O           2.58806497546528   -0.05428995444241    1.84741544415292
O           2.87423364808681    0.92370518928706   -0.37586738105837
H           2.25277999091510    0.14395724733679   -0.76110926607295
H           1.76072766061729   -0.57292143258681    1.72471460926235
O          -1.73127405406751    0.28564419741080    1.42197504069956
H          -1.62014166339670    0.82528276648117    2.20675323497973
O          -2.95742065340643   -1.15826234421175   -0.60871798390996
H          -3.80666345435759   -0.72359264005250   -0.70835644008038
H          -2.58002786477247   -0.81815801448570    0.21783203040157
O          -1.14326691690815   -0.26566886273656   -2.40880524973282
H          -1.58403616830988   -0.16369195824319   -3.25316371920438
H          -1.78806611072923   -0.69092731260829   -1.80107863539951
O           0.32490608803421   -1.40850723446709    1.50010782323376
H          -0.39903548030431   -0.73322140893783    1.44407753055705
H           0.13278987888363   -1.95340903035783    2.26553338402940
O          -1.11733263910108    1.84874449193987   -0.57622205989983
H          -0.97120554204637    1.24638879358630   -1.32261203257338
H          -1.54483338620851    0.91467627511340    0.66311350997002
H          -0.25391621882669    1.95567558958921   -0.13432361460367
N           1.39764841336483   -0.97126135114663   -1.18191839823783
H           1.92832209963290   -1.66451251419257   -1.69165741206172
H           0.61842397747780   -0.66570465924793   -1.75966343006256
H           1.01762140139524   -1.39729054470523   -0.34241220824833
