    26
        -50.45006323  Gyration_radius:  2.48284523699 Dipole_moment: 2.679
 S          -0.61155126906632    0.84105353951882   -1.66899116244124
O          -1.69547891992344    0.11615887861472   -1.06349719102657
O           0.00829654089080    0.23892999045178   -2.80179583245647
O          -1.10287312543368    2.26239806776896   -2.02601775558355
O           0.49812937336037    1.07953848309819   -0.62735344589453
H           0.14299909712848    1.30065648452226    0.30212731359172
H          -1.69861027814164    2.52092212329125   -1.26431214023032
O          -0.36635172844627    1.59480768242477    1.70599815216803
H           0.28130094564313    2.14344223082186    2.15389160248883
O           2.59120911116482   -0.74134020720405    0.93490019056491
H           3.14283680921800   -1.51439058141266    1.06755736486602
H           2.22361411352126   -0.82230684065740    0.03514634039854
O          -2.51195314810500    2.36487771553821    0.13351512659276
H          -2.74255824427695    1.44987940956977   -0.08434182204413
H          -1.89369163898327    2.29303317076425    0.87872144594894
O           1.75504695789480   -1.44787465531838   -1.61860761304713
H           2.49309100416769   -1.52622534505414   -2.22730230523056
H           1.11908657419742   -0.85154019784275   -2.05556933342424
O           0.28203937473737   -0.75805623484584    2.35784001701682
H           1.19654153477349   -0.71672387993468    2.01176509329519
H          -0.19795670408554    0.63505401872531    2.05310611203602
H          -0.17429891363251   -1.35960088815839    1.71493056441264
N          -0.61616172792838   -2.20111175222869    0.28400579963864
H          -1.16030742072559   -3.05471076720130    0.28811501545157
H           0.20228204548680   -2.35982528418236   -0.29399843382087
H          -1.16468034362956   -1.48704516103563   -0.18983311338986
