    26
        -50.44130700  Gyration_radius:  2.54889752044 Dipole_moment: 2.891
 S          -1.30647329519461   -0.31283899073761   -1.72527770449953
O          -0.25480068913477   -0.10698520826706   -2.66854385786269
O          -1.03389824276803   -1.19144731616736   -0.63014605685021
O          -1.85940181216152    1.01776726390484   -1.22774746792710
O          -2.54568280261745   -0.89340962604840   -2.49092306259605
H          -2.58452133847973   -0.42064867489914   -3.31841330854864
H          -1.18729671159817    1.47756979898004   -0.55603892049105
O          -0.25319412258894    2.06157318251071    0.34563872941326
H          -0.56902113472898    2.92485906817155    0.62205507001684
O          -2.58806144607486   -0.80032859605141    1.55549998254417
H          -2.65062227125722   -1.63996170890999    2.01567586009582
H          -2.11641110835562   -0.98293628098116    0.72355502927047
O           1.82558054199709    1.22749372469028   -1.41633669063307
H           1.22640502007589    0.74548307154021   -2.00389042452299
H           1.26301793963607    1.67251595825935   -0.77081489012685
O           0.87851680201744   -1.51098701545932    1.44213803612175
H           1.76319786626412   -1.26407586629841    1.07093256981014
H           0.30121529086252   -1.62108546444248    0.67674288130902
O          -0.39918281891200    0.57948611085041    2.35897452872710
H          -0.26975175491511    1.45829588652899    1.20977915771978
H          -1.29997593713986    0.21023930721434    2.26502024163529
H           0.19515408332889   -0.19271904230066    2.14709575239000
N           3.16559076576631   -0.72134528838976    0.24743019609131
H           3.86152895616643   -0.27371551115210    0.83036650687198
H           2.80279937439784   -0.01589596344115   -0.39701986735961
H           3.63528883545763   -1.42690284911012   -0.30575229050757
