    26
        -50.44736978  Gyration_radius:  2.55583130512 Dipole_moment: 4.472
 S          -0.36718911114173    2.31624949699009    0.34874255374216
O           0.24097874741372    1.08184308211210    0.81575986350837
O          -0.74429583625398    3.23199971481891    1.35826387523439
O           0.57269680317826    2.96467244454928   -0.66557328873778
O          -1.57154707858002    1.91930405110729   -0.55999617360116
H          -2.23423659837102    1.35909116819811   -0.05347790106964
H           0.59190682719091    2.32397477344399   -1.46351381928236
O           0.81605369356855   -1.11791025319263   -1.66279232180895
H           1.56610804708555   -1.01115477289556   -1.05325042313645
O           0.40631075428066    1.30299423338170   -2.55838284932415
H          -0.53650547206669    1.33265937520057   -2.73819929203136
H           0.60710939613859    0.36380497772587   -2.27441889769527
O           2.47730693737554   -0.35109598566466    0.41372883342412
H           1.71655665365894    0.21153161188536    0.65911324170983
H           3.20990024569306    0.24567440717414    0.25273148641473
O          -3.15694363359091    0.23806472863638    0.58085855776559
H          -2.48285581188595   -0.47970217833949    0.61471744392062
H          -3.83619163152294   -0.04910803117092   -0.03333384263543
O          -0.97398340216153   -1.24212325086643    0.40399891046417
H          -0.46716384186466   -1.90316070417664    0.93308001236183
H          -0.53412781894441   -0.39307282147604    0.61570505100846
H           0.05441973105444   -1.30926259584673   -1.08302548941148
N           0.91821514452667   -2.68263178938441    1.68694586796146
H           0.90843954949693   -2.68322403647706    2.69908653079011
H           1.65823484772047   -2.05439270768157    1.38688749531308
H           1.16080286798471   -3.61502493803549    1.37634457511425
