    26
        -50.44736363  Gyration_radius:  2.46621650342 Dipole_moment: 4.766
 S           1.58331405931679    1.09265319463099   -0.26859748823676
O           0.98077353449411    0.20881820013955    0.68726275713006
O           2.69182761342671    0.57244233541098   -0.99406964227259
O           0.46974867191922    1.56581604129742   -1.25332385367370
O           1.98201772077998    2.41414941220523    0.41607799248119
H           1.13777712211106    2.70853748186520    0.85175760544988
H          -0.29621947665743    0.90685377353411   -1.26185422757648
O          -1.52057381442572   -0.03862476904068   -1.27576349988547
H          -1.87139849784436   -0.12819333288513   -2.16329211649449
O          -2.21542884386564    0.84090946277771    1.21409757033113
H          -3.16223194920520    0.98360858992562    1.26299013371776
H          -2.02129134895771    0.49816525898105    0.32172044645244
O          -0.44993135827215    2.94850835960369    1.14341406641948
H          -0.96639584399865    2.14536480155608    1.35177841700126
H          -0.76045528237621    3.25162541973397    0.28618296684005
O          -0.67922301286054   -1.47303209947706    1.99248652376642
H          -1.37244541993194   -0.80535880218500    2.05952423485355
H           0.10048049748848   -0.96692080003057    1.71709310641299
O          -0.72597933778642   -2.30580222253782   -0.56211427618794
H          -1.18722182231090   -0.99382223152831   -1.00018843578607
H           0.24318649168889   -2.34042495828148   -0.77707527828228
H          -0.76373032421550   -2.20373615545158    0.41571161823772
N           1.92226449490877   -2.25151724133298   -1.03528030736877
H           2.19672744148214   -1.27109987724360   -1.03143354834908
H           2.31886754394856   -2.67694914418062   -1.86461429042609
H           2.36554113114833   -2.68197069749730   -0.23249048457222
