    26
        -50.44828881  Gyration_radius:  2.56728395276 Dipole_moment: 6.210
 S           1.13774696896639    0.14832630352540    1.73115317284303
O          -0.28829182385661   -0.03688460233125    1.89265005938661
O           1.91292162687075    0.28962627499819    2.90226133527830
O           1.67351851595305   -1.03573993582484    0.89115409615398
O           1.35907669263390    1.37828868263006    0.81487808535508
H           0.69204080049730    1.38672354218106    0.06633378668138
H           1.03582477100445   -1.19966182884130    0.12052161554480
O          -0.27205450591694    1.36612572123239   -1.18599427804725
H          -0.18387257421040    2.18306256223888   -1.67941023581579
O          -2.15286630445484   -1.32790886494919    0.37036298411937
H          -1.56802651684406   -1.69412047314846   -0.30195292014663
H          -1.56277591996632   -0.99529425992171    1.06692547916586
O           0.23596346684892   -1.30284014574791   -1.20719899517946
H           1.02854720617545   -1.52061136290982   -1.75384265576341
H           0.01108648187758   -0.37622232976126   -1.40496028667227
O          -1.98379570684141    2.02166656738967    2.14672342053939
H          -1.31667183614588    1.30832950936784    2.14810136441963
H          -2.52186824287709    1.88726560790186    2.92843158073736
O          -2.65768354277178    1.21279564737167   -0.34171812138965
H          -2.70052419289970    0.25089531177244   -0.14206452478404
H          -2.58616294002641    1.64942886271540    0.53087100874570
H          -1.25266794537044    1.33596867516026   -0.86675706010703
N           2.71987350662264   -1.69737556279721   -2.17539016500466
H           3.11899094352340   -1.63354861690925   -1.24501889796444
H           3.16195357701880   -0.99281578883515   -2.75274720004300
H           2.95971750417012   -2.60547948645014   -2.55331265809261
