    26
        -50.44828877  Gyration_radius:  2.56665199994 Dipole_moment: 6.198
 S           1.15717889146529   -1.34874642013463    1.07479517389102
O          -0.06560702369217   -0.88953128759012    1.69750414881855
O           1.97156661060657   -2.23395619692928    1.81315886837169
O           0.78118777132891   -1.99424467503487   -0.28049716412591
O           1.98485179605733   -0.10243999945406    0.67064836741252
H           1.38940537705050    0.61389104820491    0.29958818833064
H           0.10182735292440   -1.40153418426699   -0.74354913414244
O           0.49330528391139    1.71669582204503   -0.39230340075101
H           1.01019827942588    2.51001649449886   -0.54073908707591
O          -2.46911457006201   -0.11038066962542    0.65947086200142
H          -2.29488709640294   -0.29222483390287   -0.27040188841082
H          -1.73374617995471   -0.52345772749038    1.14165616779542
O          -0.72378877113900   -0.39551142164312   -1.59219060865752
H          -0.36058611029659    0.46911573024408   -1.32996767229384
H          -0.28276315444483   -0.63712533853184   -2.44164785064035
O          -0.12507971431495    1.23714974113049    3.32440952187438
H          -0.54428398224575    0.98753596637910    4.14932599593170
H          -0.03424223325932    0.41542428073677    2.80428843045936
O          -1.40016211339222    2.29633275395767    1.19069116035143
H          -0.99193593656063    2.11114979584103    2.06019272087640
H          -0.26796612319478    1.99327808682080    0.24670442427213
H          -1.99640556538943    1.53272117968953    1.02186061507403
N           0.90791968091953   -1.33940735261728   -3.51798912099243
H           1.35749465444082   -1.96905602858964   -2.86197885054778
H           1.62306197074143   -0.74616309211121   -3.92015298598173
H           0.51257090545139   -1.89953166153368   -4.26287687186021
