    26
        -50.44828888  Gyration_radius:  2.56723023759 Dipole_moment: 6.209
 S           0.88328791183244   -1.77040867920267    0.63344601295900
O          -0.52503475384265   -1.59834271969052    0.91792017201909
O           1.50133892602123   -2.95247992982835    1.09460394041849
O           1.07238763426690   -1.64655364004150   -0.89747980500768
O           1.63829374057152   -0.54004224051421    1.19717711647575
H           1.11956299206506    0.30154095671866    1.02975502425022
H           0.52339381100447   -0.86150896479640   -1.22846027897636
O           0.38133156593673    1.65497723721654    0.68187640296665
H           0.81431850618978    2.38567265845034    1.12591531093896
O          -2.50979638190413   -0.26596437614986   -0.40299765864404
H          -1.93591130220119   -0.90591246463610    0.04998758124468
H          -2.00881369987963    0.02021695912426   -1.17449004406931
O          -0.08250981863481    0.48048870755982   -1.72412193834387
H           0.64695814862308    0.65833910266351   -2.36500140372916
H           0.05967972664072    1.08187256639720   -0.97152283866362
O          -1.40926352798899   -0.54479196572694    3.21654686942914
H          -1.04070961121170   -1.00971785963042    2.44068293359487
H          -2.05710032293773   -1.13714489018151    3.60133751887832
O          -1.99451512853093    1.50197047988829    1.55316085197997
H          -2.39750688894337    0.95786715873569    0.84000455603518
H          -1.88817062906264    0.88968859547009    2.30879390918614
H          -0.58007966708967    1.62987764080853    1.05516985299164
N           2.20795464025659    0.49922843677247   -3.14374814267999
H           2.16018754862745    0.40380809078987   -4.15045857516622
H           2.48208016608246   -0.39878220562270   -2.75989244737149
H           2.93863641411637    1.16610133545286   -2.92820493073497
