    26
        -50.47508732  Gyration_radius:  2.41602522351 Dipole_moment: 4.306
 S           0.20481872318806   -1.42625030040329    1.01606864852317
O           1.03468967030752   -0.28163918858895    1.43058232832276
O           1.03714974347878   -2.71292004972083    1.25903910910578
O          -1.01443194683301   -1.50640792490004    1.78271350266874
O          -0.06633905967018   -1.34175728110041   -0.41960916155387
O          -2.56540010621058    0.53222576269922    1.35513365474233
H          -2.02694686739476   -0.28684472585896    1.52147904995496
H          -3.27441602625404    0.51146822179492    2.00004534954694
O          -0.11533198810553    1.90779006227673   -1.72451832176425
H          -0.92217544698857    1.34897473834907   -1.82907757864658
H           0.63047982326998    1.31101915311268   -1.92777149254105
O          -2.07347153669836    0.13515010646690   -1.42123108640902
H          -1.43452953638259   -0.54804271356827   -1.14237079982812
H          -2.58097954255646    0.33269557010749   -0.62478669648749
O           1.60932562491220   -0.21353215653833   -2.03479601792461
H           0.96789390157105   -0.66808840367882   -1.42968778062062
H           1.50158600487727   -0.63057951743571   -2.89162107835118
O           3.03133116371540   -1.42781530106166    0.09800795508228
H           2.85277502290714   -1.08513689971123   -0.79066947827918
H           2.63373349277875   -0.77536978260931    0.69651388824338
H           1.88345560457553   -2.50159859333166    0.80725616283691
N          -0.26307832504379    1.89541362829201    0.86808363023911
H          -0.16565821859698    2.01396146072436   -0.20602899533259
H          -1.23811102198873    1.62000423324768    1.09131428347567
H           0.34213814268848    1.06370873540515    1.14772765176215
H           0.01149273450541    2.73357115596568    1.36820323329227
