    26
        -50.45214744  Gyration_radius:  2.46484115754 Dipole_moment: 3.239
 S           1.48926451370180    1.22547864612437   -0.44704417620191
O           0.91828969591370    0.47779958190100    0.65900394873689
O           2.75624111441858    0.76439188235467   -0.89045714985464
O           0.45965141712837    1.21910738349345   -1.60477783516226
O           1.56207029288151    2.70909511087649   -0.09042518437633
H           0.60993448308693    3.05612327310721   -0.03425143702115
H          -0.19223771689158    0.43156071331204   -1.58803251255513
O          -1.24100498114558   -0.65831358601499   -1.60402549915976
H          -1.40865036025310   -0.94062007253388   -2.50484770349654
O          -0.90477632058375    3.35819573114297   -0.13194213137553
H          -1.11122876710528    3.39146664212162   -1.06927741474930
H          -1.35278014652973    2.54990608168477    0.22694038336514
O          -1.71717208027051    0.96609565167189    0.63577410738500
H          -1.97226538809534    0.40575664485912   -0.10808630472752
H          -0.78836414826371    0.72907449521516    0.81676221400941
O           2.19544996123573   -1.84089203135922   -0.09327478284025
H           2.88260561293231   -1.48285533258326   -0.66182093323273
H           1.83430749701524   -1.06730472464827    0.36234855390519
O          -0.36715354243542   -2.68501683619925   -0.35585370305159
H          -0.59764957288677   -2.46956208677384    0.58106948572238
H          -0.90051861585494   -1.49352089886892   -1.10597407416597
H           0.60443805633324   -2.60841796471685   -0.38212880234469
N          -0.71048579126194   -1.67332439817171    2.12990227068991
H           0.02279143618330   -0.98277214464144    2.00642436826082
H          -0.49633765275826   -2.21073012788585    2.96006737042455
H          -1.57441898637127   -1.17072162317362    2.29392694159520
