    26
        -50.45090192  Gyration_radius:  2.44443560726 Dipole_moment: 8.455
 S           1.81010281084884   -1.54854571102435   -0.00240984707871
O           1.72049529483613   -0.47012868683947    0.99570493832491
O           1.87871988675693   -2.85679846950872    0.56084295381807
O           0.40554072845705   -1.44348662806932   -0.79794511964596
O           2.77286186055160   -1.20630309819089   -1.04310506715602
H           2.35385092738295    0.22583702899443   -1.24862482934697
H          -0.30308312915034   -1.61842459488016   -0.14138330437605
O          -1.53140315022279   -1.65114507652575    1.01837676123618
H          -1.46379239792236   -2.53295534521921    1.38825264074823
O          -0.63231992084260    2.12361595038129    0.70652163374137
H          -1.30354450765988    1.59510212163858    0.24294951910427
H          -1.01949514290458    2.98511074652469    0.86621965436445
O          -2.50465394020920    0.43645373206849   -0.46735553068825
H          -3.46264305192121    0.42437322391750   -0.49663978887400
H          -2.23065119932932   -0.37919473005217   -0.00954575991875
O          -0.44061418166541    0.62087891785902   -2.36577577538203
H          -0.17079583620444   -0.29569696204286   -2.19600644939894
H          -1.25868716054644    0.72649833285503   -1.85903512111122
O          -0.31154532463757    0.02961116400551    2.54254956459740
H           0.56171027995859   -0.23375018234171    2.17336018393121
H          -0.46531780356906    0.89702345305485    2.13616949654783
H          -1.12071176743961   -1.02797600939314    1.70033623480673
N           1.81662834665379    1.13915986137407   -1.00985970586415
H           2.36809411870106    1.98276732513658   -1.11790855585275
H           1.60503585139139    0.91580998748463   -0.00998373188008
H           0.92621839871108    1.16216365877707   -1.56570498463436
