    26
        -50.44639627  Gyration_radius:  2.51531844869 Dipole_moment: 3.610
 S           0.94099654783271   -1.62406377760090   -1.41581747661757
O          -0.36472144328585   -1.91279007687428   -1.94310815611144
O           2.07578498809819   -2.17464606409971   -2.05453747180854
O           1.09436637379212   -0.06496446677612   -1.36755505360203
O           0.98490646987453   -2.02230833411475    0.08218803361132
H           0.16442948353635   -1.68542506553681    0.55412321724457
H           0.21175008456540    0.38305157845833   -1.49825028948566
O          -1.03222266565869   -1.09484116242291    1.38450613287783
H          -1.16742880061689   -1.63858399028528    2.16251366745263
O          -2.57900557404094   -0.89392672116123   -0.87578985020057
H          -1.97867837491269   -1.48770801832014   -1.36603958097160
H          -2.29029767349489   -0.96676319964484    0.04813877249182
O          -1.20017481137383    1.10222177656703   -1.73413622633323
H          -1.83971173232040    0.39606999885110   -1.39880453949857
H          -1.33999105779060    1.16354822810484   -2.68081526335798
O          -0.77973935528981    2.83883743609868    0.39085588367617
H          -1.63796358724619    3.22028022455948    0.58264861946058
H          -0.88097844608014    2.31291073351931   -0.41829902286084
O           0.15439220819275    1.00181088951809    2.17901346749805
H          -0.12805646826079    1.74764242493678    1.61574382199876
H          -0.60337016953068   -0.22515805920910    1.72422019097035
H           1.08915636483236    0.81183320381606    1.91758619705531
N           2.57461785335287    0.30468275208365    1.18663522272486
H           2.36772843807778    0.40906989945929    0.19847270394102
H           2.71883912550050   -0.68500348554318    1.34863770087213
H           3.44537218222629    0.78422331561142    1.37786930897247
