    26
        -50.44639628  Gyration_radius:  2.51402594985 Dipole_moment: 3.605
 S           1.54697478805904    1.12876614772958   -1.35429933654836
O           0.52322762745204    2.05740563681157   -1.74898019407407
O           2.89100410124863    1.40434817164177   -1.69546654696030
O           1.44552201364882    0.94989271402733    0.19948597645599
O           1.18930051227615   -0.28208966658256   -1.88870102170226
H           0.22515760554855   -0.49038150820551   -1.69735303497430
H           0.59170607448089    1.33398754972363    0.54655734661324
O          -1.23808158009011   -0.93231502435369   -1.33336115275039
H          -1.52498147250150   -1.59931498787052   -1.95948954073974
O          -1.25156071303717   -0.26999232976991    2.67545607416158
H          -1.03063690352054    0.55734081338883    2.21935432930345
H          -2.17104973029224   -0.20457637134610    2.93824651405660
O          -2.03441228115911    1.68725037394299   -1.11518325931204
H          -2.03306416701339    0.72418941122932   -1.23684936890221
H          -1.23316821928496    1.99317471030536   -1.58186193888256
O          -0.76700704134079    1.97045667912835    1.10666428687880
H          -1.36883571691638    1.88785178387450    0.29994237230410
H          -0.61684939002024    2.90887313060331    1.23457626457466
O          -0.65777347316073   -2.16677547427953    0.80542256753465
H           0.32918051531861   -2.20385133941047    0.75133797789173
H          -0.85621786105171   -1.58095620009490    1.56085784049263
H          -1.06041216917184   -1.43415243576222   -0.45453961103683
N           2.02259756179388   -1.95239482504558    0.49323257462889
H           2.71618772457869   -2.42648649766084    1.05794736789811
H           2.11014787589520   -0.95478365909139    0.65841065428855
H           2.25304429822717   -2.10546680293825   -0.48140711119990
