    26
        -50.45214757  Gyration_radius:  2.46463075138 Dipole_moment: 3.232
 S          -0.42776562348619   -0.36785005371190   -1.89871242252373
O           0.26189180598111   -0.93414883427876   -0.75321544246701
O          -1.59435218981041   -1.06878572308141   -2.30146600246626
O          -0.75394697525809    1.11112367752575   -1.57203706245012
O           0.53870356807201   -0.23106362339129   -3.07371000552782
H           1.21850042576701    0.48115583070092   -2.82730844825491
H          -0.82115803418991    1.32035656224975   -0.57356046723404
O          -0.87039100742268    1.73669799994913    0.88005719228439
H          -1.57422914816914    2.37343861284566    1.01587621895461
O          -2.06848840590392   -1.96033052840822    0.29065981419813
H          -2.62823694341602   -1.94700082053171   -0.49043532745511
H          -1.17734684955316   -1.79943976298061   -0.05057677689404
O           1.77687483545235    1.02282515716698    0.27619133059485
H           1.08873755427497    1.53645973694156    0.71781792592233
H           1.33259201224728    0.19871755585054    0.00198535691992
O           2.04047932391169    1.66823982401711   -2.27022705500380
H           2.10688455821197    1.50173432456000   -1.29511841060087
H           1.49053535661876    2.44825085117332   -2.37719137346926
O          -1.42418062695863   -0.27814329822007    2.31634702364026
H          -0.53563369528347   -0.68865240447473    2.45513217132127
H          -1.10048959213149    0.93084281094575    1.47943903338961
H          -1.88096863520895   -0.90186144519703    1.72242848804521
N           1.02297783245367   -1.42473558814365    2.18236814374316
H           1.81443848165756   -0.79903514573622    2.27184962460201
H           0.92345737366055   -1.64806478707872    1.19743964345594
H           1.24111458835179   -2.28073092849611    2.67596683718993
