    26
        -50.44822824  Gyration_radius:  2.54166140749 Dipole_moment: 3.947
 S           1.75797949688224    0.89853526254646   -0.83270989168642
O           1.11268394893569    0.79068747769367    0.45614710834084
O           2.92251654147330    0.11010570727135   -1.00974403048083
O           0.69920454394026    0.57661088749252   -1.92577832667239
O           2.05802832250111    2.37557265547113   -1.13049619101406
H           1.17008512225508    2.83056910116292   -1.07644996708058
H          -0.04684842751168   -0.04383081349875   -1.62786755134285
O          -1.28599042592295   -0.87899596262775   -1.27557086941457
H          -1.53128774904870   -1.41821461006743   -2.02903183186783
O          -1.92353525880326   -0.68420413944460    2.44176883806420
H          -2.81882488524529   -0.67539874559730    2.78232477266878
H          -1.81263054786016    0.12715058631120    1.91468190202242
O          -0.40399176684056    3.18730008742343   -1.09222830464160
H          -0.72116690199011    2.92775962198712   -1.96071021834153
H          -0.89898395207877    2.64527164886443   -0.43889067775361
O          -1.46152957731398    1.24788114979585    0.48671847321116
H          -1.71456802267189    0.58499625682756   -0.17299035079099
H          -0.50470540598844    1.08555157212610    0.64412372771162
O          -0.80437648714132   -2.44462931812290    0.64910080336782
H          -1.08844000284168   -1.54197924126575   -0.50604093012980
H           0.18104804229032   -2.39777912062283    0.76132795323560
H          -1.17877067849098   -1.96132749159744    1.40878127267972
N           1.82598456931294   -1.97461933961592    0.86238282737315
H           1.70261245973125   -0.97360826916135    0.98894757192780
H           2.40098748107477   -2.07490637714919    0.03385018848861
H           2.36451953136524   -2.31849858620856    1.64835372212395
