    26
        -50.45214757  Gyration_radius:  2.46464091128 Dipole_moment: 3.236
 S          -1.70808504809267   -0.96991162072104   -0.25282785502282
O          -1.02498947221337    0.25589576117467   -0.62607702574280
O          -1.92274305205387   -1.88320925804954   -1.31783881117928
O          -0.90143867044815   -1.63191462107515    0.89237990862936
O          -3.03124577576282   -0.64050246042572    0.43569832948768
H          -2.81155614610849   -0.20851019537501    1.32742583704969
H           0.08839103382367   -1.37681340197359    0.91683382356024
O           1.54568715308089   -1.00262291199583    1.07294842801449
H           2.05675404233801   -1.77177989860541    1.33079651456596
O          -2.21893545681539    0.30190888024759    2.66283026356981
H          -1.39476014060765    0.79122687626909    2.40923998710875
H          -1.93556847655426   -0.47826930320943    3.14586247591237
O           0.33741699491875   -0.98648786563524   -2.66905481979531
H          -0.19522701249572   -0.40936444900285   -2.10365514191231
H          -0.20504109592597   -1.77110475909717   -2.78620735919446
O           0.00510250797462    1.27764902624092    1.62767002313747
H          -0.34153628179320    1.07472468600123    0.73863757030010
H           0.75659656720892    0.68161729857565    1.73912348736860
O           2.46249729081079   -0.23576160498488   -1.16311052799874
H           1.93770295583156   -0.69372719445466    0.17143537383797
H           1.88245477444778   -0.64061385622823   -1.83405946439430
H           2.21108729463136    0.72020987295225   -1.17655105224170
N           1.29301895435856    2.20409713633249   -1.14318437595327
H           1.31295253036903    2.70130791338967   -0.26096530691396
H           0.36132202357861    1.81671821668331   -1.25129765262296
H           1.44014252533859    2.87523773293486   -1.88605264943853
