    26
        -50.44639624  Gyration_radius:  2.51386259265 Dipole_moment: 3.607
 S           2.27523138565915    0.18276353310310   -0.53638859741798
O           2.03024211123712   -0.46523228472317   -1.79589620145850
O           3.53320272292738    0.78681782481468   -0.30968360439323
O           1.15337124070586    1.25861904872172   -0.33530407405571
O           2.00276185981453   -0.81988172971279    0.61445340791247
H           1.13200307614664   -1.29656473272326    0.45889795059355
H           0.41295396415804    1.12730636683827   -0.99221126614399
O          -0.26919859328916   -1.99781989298187    0.34329304542352
H          -0.24235193287173   -2.82538328062629    0.82665684909806
O          -2.69582439555727    1.23473957637382   -0.08845314859833
H          -2.03182086912215    1.24101291730140   -0.79580268713171
H          -3.51176102861108    0.91517332516944   -0.47695782143790
O          -0.76366074293171    0.93105492511615   -2.06084538776763
H          -0.49784723281257    1.37264542204184   -2.86946311517097
H          -0.69741865881790   -0.05970910391423   -2.24498222464079
O          -0.31455273260556   -1.58383402219844   -2.37163131815103
H          -0.48093239067853   -1.93864891666663   -1.48355508372984
H           0.64157175537752   -1.38604909919219   -2.38001594701407
O          -1.54608094253582   -0.36225675430449    1.80254043361764
H          -2.02670420616612    0.25756517810944    1.22115653051026
H          -0.83629447658565   -1.35987422383150    0.91525291721794
H          -0.80997965338569    0.16494170793684    2.20072141391036
N           0.64049627922485    1.02889739809476    2.58455774938320
H           0.85106690376990    1.47971554320852    1.69995101751305
H           1.39595660892824    0.37829061799438    2.76464690910260
H           0.65556993802682    1.73571064604533    3.30906224285102
