    26
        -50.44600004  Gyration_radius:  2.48290578996 Dipole_moment: 3.220
 S          -0.66584293139650   -1.46342679652220   -1.41159963288269
O          -1.15093137735673   -1.38931142588170   -0.05667768157904
O          -1.04073073292721   -2.58666029312433   -2.18275306982152
O          -1.08471437197468   -0.14541214123037   -2.13321934366108
O           0.88009445574497   -1.37298672919573   -1.39911022137447
H           1.18310328727697   -0.54143712705195   -0.92070960549362
H          -1.45249385145111    0.50312309081347   -1.47629347926084
O           1.73191336601249    0.75258788296297   -0.23522227867106
H           2.69042996189748    0.73941505454999   -0.26139788623752
O          -1.50509906961989    0.54833410233120    1.84026898624467
H          -1.52330363637848   -0.26906807449694    1.31779422778548
H          -1.73650729145903    1.23945389459221    1.20850880730963
O           0.40005180271594    2.66558955307401   -1.60163002934214
H           0.40868382677887    2.29125106926558   -2.48568115200447
H           0.96148646891650    2.07875416981653   -1.05586712935479
O          -1.90016015810898    1.84512721828393   -0.64592888097826
H          -2.63985498935828    2.29444087097278   -1.05882494031061
H          -1.07693205284574    2.32906521733676   -0.91614639109098
O           1.13710734128392    0.31428692690048    2.16575767562847
H           1.18351085816457   -0.67196045483731    2.15319668073517
H           1.48243226935824    0.63147420181763    0.77092296315824
H           0.17466140690498    0.51276034680886    2.22251411344958
N           0.98203260128738   -2.33972903626924    1.65088622473997
H           1.67139786078897   -2.77639416826464    1.05138538491245
H           0.14961976934363   -2.18505800531229    1.08445357845028
H           0.74004518640396   -3.00421937733300    2.37537307964732
