    26
        -50.45315590  Gyration_radius:  2.46435189186 Dipole_moment: 6.330
 S           1.00638773770015    1.70362096557449    0.47190659026582
O           1.14955869352155    1.30846207626230   -0.94160984491658
O           0.22842737137646    2.88703116654626    0.66727125517292
O           0.17826642693816    0.49259598898541    1.12545714332938
O           2.29513081539413    1.63080198396900    1.14703997641431
H           2.94579240197750    0.39967265090436    0.50134401368053
H          -0.77289241512887    0.73726705733332    0.93083620122672
O          -2.07513033817285    1.47147028432823    0.36176117353364
H          -1.63335440764883    2.32249322518282    0.50404245495379
O          -2.92839306789710   -1.13539218815000    0.82864186769367
H          -3.83788560000758   -1.25668116046125    0.55033989501026
H          -2.76852240338587   -0.17897150204498    0.82467134070277
O           1.07660447873958   -1.99841906420955    0.78917477144515
H           0.67570437473908   -1.12704763329095    1.00144453005858
H           0.90296897610666   -2.56698662039104    1.54133307935906
O          -1.09986392729478   -1.84146151243640   -1.11137754679768
H          -1.77831104025662   -1.71953289655282   -0.42159104274179
H          -0.28630910599679   -2.05658699168932   -0.64074088631139
O          -1.26737185412901    0.73771647187102   -1.99284049217015
H          -0.35909631499840    1.04031260850619   -1.81438714616494
H          -1.23935765499910   -0.23402363302479   -1.88337651788952
H          -1.93203867935187    1.26391890311837   -0.60936980436435
N           2.94130051289312   -0.34460700278330   -0.28079669529734
H           2.24147244459935    0.18005739325721   -0.89619481394369
H           2.49496466513700   -1.21052142874067    0.06468349278329
H           3.84194793017844   -0.50518914205273   -0.71766299506474
