    26
        -50.45019501  Gyration_radius:  2.45223031297 Dipole_moment: 4.168
 S           1.19697642171147    0.23781864040146    1.56481778176794
O          -0.19380737609962    0.24343292439377    1.18814489007169
O           1.55203976718751   -0.55494302690616    2.68785495045743
O           2.04632127114700   -0.23034861940964    0.35706405541797
O           1.63452492347718    1.70551432146965    1.77075328085766
H           0.91129888812665    2.29898741583158    1.39608630449813
H           1.56230561837053   -0.11168823355115   -0.51583450328863
O           0.82114907646717   -0.08865738885622   -1.89546037629464
H           1.41024569634304   -0.40626981338463   -2.58202120750073
O          -2.40534566210533   -0.03581658226529   -0.34741227571301
H          -2.23158715010570    0.72403248904346   -0.91483766426951
H          -1.74114185251380    0.02259451716942    0.35791740365549
O          -0.84880381504957    2.02475907612958   -1.67280492648357
H          -0.22267907314086    1.28209793483330   -1.78882256578811
H          -0.73611531308633    2.60994681412339   -2.42351599336489
O          -0.38686725393273    2.98888563465289    0.82313803954088
H          -0.53866154911294    2.69131934263625   -0.09912027932958
H          -1.05800147432329    2.53960477499444    1.34458060826008
O          -0.76309673088821   -1.94681168506195   -1.29202142291221
H          -0.37921287171655   -2.31135555313820   -0.45451679396723
H          -1.53986983625318   -1.41666673004329   -1.00947323870773
H           0.16328937351075   -0.87288866142903   -1.69468660550717
N           0.33076608616665   -2.77878362294681    1.04961600104074
H           0.65176237203312   -1.96424875131837    1.56367318382625
H           1.12219122876478   -3.40472292751580    0.95857394687126
H          -0.35768077494865   -3.24579227985267    1.62830742686753
