    26
        -50.43857433  Gyration_radius:  2.52961186103 Dipole_moment: 9.017
 S           1.10478658752467   -2.09154583886708    0.66768459678463
O           0.19091596369966   -2.38770477701106   -0.39546373909627
O           1.57239132196573   -3.15440153881448    1.47315852564345
O           2.29894202197002   -1.27667561595027    0.06041628763976
O           0.44963828133665   -1.01551479549770    1.60040552538411
H           0.58382501021579   -0.11982762984840    1.18670464962790
H           2.15750853229933   -1.21588851232551   -0.92657056651967
O          -0.10596468019775    0.90865563589644   -1.96885132213239
H          -0.54778857938415    1.55216835274160   -2.52405136765682
O           1.91121861589423   -0.80701909623266   -2.44981077308043
H           2.60896913151630   -0.33373236053270   -2.90732229954769
H           1.12758472057008   -0.21842253172708   -2.41645688690749
O          -2.33203874706682   -0.24519645450247    1.31534269249551
H          -1.63869273769340   -0.78282238736326    1.71109672839969
H          -2.10411061184065    0.68296095883790    1.54252729524740
O           1.03419839065098    1.23408363560123    0.40704230629781
H           1.95492191384435    0.99633168683010    0.26405512601265
H           0.59105390875015    1.19801264350238   -0.47389585413550
O          -1.81344058600012   -0.81490343378311   -1.24160039163484
H          -1.21268078370925   -1.56343252684833   -1.07290177312585
H          -2.17009913366720   -0.58010826114948   -0.35306855682180
H          -0.83027129349826    0.22918057762987   -1.70282725627093
N          -1.35618658805259    2.23554900211759    1.98419520523366
H          -1.25401879966473    2.30953055839963    2.98824043199538
H          -1.79260622582128    3.08552461043992    1.65143203836186
H          -0.42805564361500    2.17519807844653    1.58051937782952
