    26
        -50.44095212  Gyration_radius:  2.55731744165 Dipole_moment: 8.006
 S           1.72001595710021    1.89810054553660   -0.81552872181206
O           1.58379102324564    0.50618790144207   -0.43902373010118
O           2.98859354929618    2.49326448725279   -0.66916561469244
O           1.20840210100428    2.04755886008407   -2.27154818921335
O           0.68567761164231    2.70307638503779    0.02285189549692
H          -0.20762090040812    2.26856310594694   -0.00145093642167
H           0.51688824403365    1.34197553640738   -2.41077636787999
O          -1.59346082549484   -0.26578149637218    1.79312347984109
H          -1.96852492009497   -0.09725425764059    2.65871965790874
O          -0.49105533537038    0.11074944278166   -2.04866332268811
H          -1.17393414929357    0.54429520315832   -1.51511617666923
H           0.18900421564399   -0.17829261013683   -1.41492195453567
O          -1.67399194144746    1.56804873434838   -0.03943451138291
H          -1.68201931338990    0.86835043334530    0.67922910653080
H          -2.34942374648428    2.21002475007636    0.18667459727265
O           1.61885894221805   -2.38880019193039    0.53156519614248
H           0.70998950285161   -2.51466008108810    0.17750522871890
H           2.03831382185207   -1.74072734586955   -0.04156442060883
O           0.96573589738050   -0.33020851673144    2.08467991114576
H           1.24422465318365   -1.23532775876341    1.81667119937658
H           1.28763363260649    0.21070070988187    1.34686901891014
H          -0.59463471091263   -0.33003604692817    1.93907602470410
N          -0.99034561752903   -2.43757977351868   -0.34186381962132
H          -1.45517003856335   -1.84185407298132    0.33504105058587
H          -1.41895895983874   -3.35281554755848   -0.29713790499476
H          -1.15798868322922   -2.05755841575335   -1.26581068599587
