    26
        -50.43857448  Gyration_radius:  2.52962245568 Dipole_moment: 9.017
 S          -2.14172657936887   -1.20323514283645    0.09676605279651
O          -1.21037338741405   -1.86942878043230    0.95810284933971
O          -3.29950004237720   -1.90059592146684   -0.31595137139853
O          -2.51546734195839    0.16607472689454    0.76315924393116
O          -1.37563346656045   -0.71689960996511   -1.18133446446319
H          -0.90758603822075    0.13352364182009   -0.96006467679355
H          -2.05687559960019    0.21001738258693    1.64954593797503
O           1.16261339986723    0.83561661255418    1.63437310171132
H           2.01400185348148    1.17353001737263    1.91456503727757
O          -0.35366870760258    1.56439602195333   -0.42065622434924
H           0.26713770195398    1.35414646792412    0.31680473637826
H          -1.17067472455107    1.87093831906693   -0.01665795576636
O          -1.17098661120647    0.52720019928987    2.93907364862831
H          -0.25511970989772    0.59098734580767    2.59430646619532
H          -1.35440794841123    1.33452206616671    3.42354848268095
O           1.34687956626474   -1.55408683833151   -1.73087507897767
H           0.39438948133970   -1.65757894617674   -1.82257366204474
H           1.55017429436130   -0.66771147386973   -2.10233689012833
O           1.45895631339382   -1.58169725702896    0.93749599760244
H           1.58124226894212   -1.63663844651641   -0.03906183286822
H           1.32748159361649   -0.14328615191814    1.36762203342612
H           0.54854882175060   -1.89533415433388    1.08690051699765
N           1.57432056715123    1.00942937724157   -2.69599062297252
H           1.21216795343240    1.06035767518783   -3.63949826699215
H           2.45365937595658    1.50926414346899   -2.67190830201536
H           0.92044693565553    1.48648871551625   -2.08535477617056
