    26
        -50.47508730  Gyration_radius:  2.41603821702 Dipole_moment: 4.306
 S           0.19999616470136   -0.70674667066728    1.60284359671838
O           0.76907612027564    0.52531536493745    1.05515234700790
O           0.00338272905369   -0.49307156395540    3.12697419537401
O          -1.13155360824257   -0.93941987514069    1.01675374092951
O           1.07715137146245   -1.83340245301313    1.39792515727508
O          -0.74678231001259    2.47664963372860    0.29107194139667
H          -0.24322127844544    3.28563138053844    0.39895738703990
H          -0.15287145470737    1.74459502519754    0.60018846022069
O          -0.30761532812138    1.34045686623868   -2.17616482326581
H          -0.62361963515456    1.85836115651218   -1.41092228791274
H           0.66001853135606    1.22376948109689   -2.02040724787034
O           1.59837937575735   -2.21291142263337   -1.11776303751120
H           1.46266692123923   -2.08493388321718   -0.14117559680076
H           2.04490339639799   -3.05632563505681   -1.20882105501341
O           2.08217623018293    0.58783333001313   -1.28685815249918
H           1.77036202643902    0.63016223628373   -0.36286504088882
H           2.21879898409658   -0.35249050409402   -1.45427875460183
O          -1.97389920439812    1.12763884070089    2.46369627204348
H          -2.08386188625691    0.35613814559124    1.88520384652752
H          -0.69644601155170    0.19587792816586    3.15182709229822
H          -1.74276983871296    1.85234540576234    1.86331166735799
N          -0.85372015165893   -1.12201851403686   -1.55807797828535
H          -1.07013214053835   -1.07454715570059   -0.51541080163777
H           0.04459549153724   -1.63534819433856   -1.63467929930937
H          -1.59564005190644   -1.59085016821276   -2.06582465529080
H          -0.70937442271992   -0.10270875464574   -1.90065696330056
