    26
        -50.46862844  Gyration_radius:  2.47495170889 Dipole_moment: 4.030
 S           2.01642242018360   -0.94732334912952    0.28776080904555
O           1.42037960413445   -0.65704862692088   -1.02755553265696
O           1.84600801698573    0.15990331460464    1.18823291025753
O           1.58193750123858   -2.23133772988128    0.79741968097504
O           3.57377759485317   -1.10275745329698    0.01776308918162
H           3.63038143800627   -2.02664701671006   -0.20223516830058
H           0.07990713016494   -1.91949085586181    1.28270668714520
O          -0.87103177872140   -1.73517050134096    1.48114991554952
H          -1.06935286414468   -2.20805517012192    2.29133997575012
O          -2.17210497189674    0.73569034320726   -1.47851913662809
H          -2.89530278797983    0.72622838078389   -2.10566544205748
H          -1.81386309324422   -0.20064334146766   -1.44289969393994
O          -1.07690472434479   -1.61027285546456   -1.26661313948296
H          -0.12446767233537   -1.39067996181369   -1.29592647050156
H          -1.23454608086519   -1.87333246184539   -0.34700389313900
O           0.36256054136053    2.36966968989103    1.31302128246728
H           0.37282119554065    2.12981078025131   -0.17265987263726
H           1.02277717253014    1.68194907854136    1.51993374532813
O          -1.83444961409948    0.86261723634636    1.35340830742683
H          -2.14924049262493    0.89645264673450    0.43996756145104
H          -1.48928618499269   -0.03783513666882    1.48014850873909
H          -0.50317017445456    1.94918815500919    1.52652024073954
N           0.34328248602310    1.73201962869556   -1.18934967569108
H          -0.64517562253935    1.53123469464667   -1.43345121319710
H           0.85620724791203    0.80470490436029   -1.15973644635416
H           0.77243369330901    2.36112561745314   -1.85775704946775
