    26
        -50.44095204  Gyration_radius:  2.55769108006 Dipole_moment: 8.005
 S           0.98795485646032   -1.17026741091275    2.21088459910038
O           1.31417234405382   -0.65335526336043    0.89784962606824
O           1.83800693292385   -2.15257295797816    2.75623248801604
O           0.85376815076879    0.03595896833498    3.17574482678384
O          -0.45726486256516   -1.74159028516692    2.13232051857602
H          -1.06970959855944   -1.09949977824361    1.68552602284106
H           0.55400668550859    0.81440077723726    2.62827532345645
O          -1.76552334488181   -0.45452139314403   -1.58190867155391
H          -2.38600274104924   -1.00515138679094   -2.06166643413580
O           0.05117963752364    1.64480483391878    1.31681197373519
H          -0.85919521437123    1.33275884380492    1.20296600787252
H           0.60162682891478    1.03441862930831    0.79524985730442
O           2.22724578980455    0.15369639176191   -1.90242165273677
H           1.56391576885107    0.87984873093722   -1.90668543890806
H           2.49130812884983    0.04233541664997   -0.98462808429031
O          -2.08140576603702   -0.05263432986877    0.96081682090849
H          -1.99983626303761   -0.20307975703002   -0.02760159433128
H          -2.98780319464088   -0.25320842523944    1.20090523024174
O           0.44673425460672   -1.76745451867362   -1.43828507499746
H          -0.89516621513921   -0.96979441016157   -1.57602904713762
H           1.11549306193501   -1.21950504153074   -1.90859123930009
H           0.70928455294129   -1.66103861652202   -0.51075462798526
N           0.16413934135242    1.96994633261364   -1.77066192616880
H           0.13197243547894    2.60979474122274   -2.55354780904699
H           0.10462522039747    2.51402471084155   -0.91825542363747
H          -0.65352678009897    1.37168523797203   -1.82254629063395
