    26
        -50.45423362  Gyration_radius:  2.4448329232 Dipole_moment: 1.965
 S           0.23125005010110   -0.94834900240337    0.50403987962870
O          -0.65348228907212   -1.78187873113939   -0.31777143898980
O           1.09572974468130   -0.12773029693657   -0.38409802564740
O          -0.57959356325896   -0.00701882182473    1.32447735730436
O           1.08042174389574   -1.76898015033821    1.39250011951152
O          -0.13710813511640    1.93741082728298   -1.20959298929997
H           0.34066298094004    1.13484546253266   -0.82633542015202
H           0.41413826959852    2.24038117283921   -1.93405326428880
O           3.10186496931319    1.04223284234100    0.78949304704635
H           2.36164504934819    0.63136950063798    0.26744809285672
H           3.88062904189330    0.52872242129940    0.56972057562569
O          -0.96678391059489   -1.21658691857872   -2.78138495166925
H          -1.39003796056111   -1.99422880598257   -3.14904998245635
H          -0.69893593748996   -1.46729781076180   -1.84483560825544
O          -2.83242722838192   -0.35726988684655    0.21776091186668
H          -2.04116460952849   -0.07806202890423    0.77107015555458
H          -2.57017061406555   -1.26296722374288   -0.00778794846062
O          -2.25770266381461    0.78661844258632   -1.92057640621791
H          -2.60868278406700    0.35872200270434   -0.99459057414539
H          -1.44243512687194    1.37279341919658   -1.63801535712175
H          -1.81234735073722   -0.00548497262581   -2.40367956413583
N           1.52584546246911    0.23155124679222    2.78068045329456
H           1.46721541779773   -0.79518524427813    2.30902965946290
H           1.64595349854740    0.26550702704779    3.78553571334199
H           2.26152065933849    0.74112116522168    2.24632422091402
H           0.58399527564928    0.53976439388461    2.45369135443660
