    26
        -50.45019498  Gyration_radius:  2.45222400566 Dipole_moment: 4.167
 S           0.88916292289579    1.52645397268788   -0.90408947117863
O           0.46275853213535    0.16793213487710   -1.12516662845631
O           0.49762763321394    2.48545803617055   -1.87505298176979
O           0.37199854944814    2.00053609976279    0.47690854980225
O           2.42502662827911    1.51574431547096   -0.73388190039738
H           2.71590510223317    0.55825764759536   -0.61464336834104
H           0.15723417194017    1.23065594540020    1.08642881383865
O          -0.33093359509662    0.08758088031584    2.03934162113462
H          -0.64732531564954    0.46743508853305    2.86085485391340
O           1.29761335107410   -1.97894437327635    1.42072522501654
H           0.72604335863875   -1.23145676473136    1.68827322158631
H           1.69742227009231   -2.32924858108719    2.21830847729792
O          -0.70773645608105   -2.22859049899455   -0.66305091711549
H          -0.08539494011628   -2.51663852512309    0.01463549083782
H          -0.32222005236483   -1.41522174244343   -1.02619681831315
O           2.90861411045482   -1.00588506148049   -0.53658089731829
H           2.37339174338294   -1.36740337432574    0.20163034306619
H           2.44406315648213   -1.27066140836380   -1.33549439751776
O          -2.32377237774578   -0.50368588181247    0.62309499506365
H          -1.18211164892905   -0.17132298677716    1.49482072016016
H          -2.37324941856727    0.24407856207428   -0.02504928169166
H          -1.94959478698824   -1.25789465447527    0.11769798638540
N          -2.28114194577512    1.54502087321453   -1.15816769231637
H          -2.75149353061175    1.28955201580085   -2.01866931113671
H          -1.31477375843923    1.74855363481350   -1.39371043014602
H          -2.69711373390469    2.40969462619446   -0.83296623238202
