    26
        -50.44095210  Gyration_radius:  2.55749029118 Dipole_moment: 8.007
 S           0.16381133389112    2.68293961172941   -0.06912578517840
O           0.34202819883744    1.50666538472639    0.75691598909491
O          -0.09187624914454    3.90593702031843    0.58188027496894
O           1.40070631865003    2.80317618927827   -0.99641560015924
O          -1.00471169288856    2.38075817974509   -1.05110097162712
H          -0.89117766288763    1.48989377351650   -1.47613694460283
H           1.74102551837877    1.87771355555621   -1.14858218438483
O          -1.68035509047897   -1.66451375331195   -0.47885544168538
H          -2.57250454307879   -1.99722832837884   -0.58705432261646
O          -0.71119845822265    0.03572378777754   -2.18078485947988
H          -1.10235105638318   -0.64308924508790   -1.55435185036081
H          -1.22341361429375   -0.00191783645558   -2.99055178199516
O           1.79630381791999    0.24860635947855   -1.07493092860208
H           1.38367028593442    0.33537936779318   -0.19755036611582
H           1.08036272420333   -0.01583115683487   -1.67206548813002
O           0.57192372551106   -0.77731608619875    2.77071198389449
H           0.88408166663232    0.09917760328486    2.52830682901735
H           0.86802807656728   -1.37824459949339    2.05063954453797
O          -1.70529610085442   -0.10456768468929    1.57153222141219
H          -1.20944542994738    0.67137963875966    1.26722211436020
H          -1.70464403101494   -1.09127240305044    0.35421791455759
H          -1.08562107663625   -0.50580499161899    2.22246310175990
N           1.16968796060254   -2.31351937312771    0.56717664264259
H           0.27830842520696   -2.35400793677964    0.08453404652380
H           1.44531411776177   -3.26060642088065    0.79175934054834
H           1.85734284572336   -1.92943065604595   -0.06985346839380
