    26
        -50.43857429  Gyration_radius:  2.52984104722 Dipole_moment: 9.015
 S           1.42465726184459   -1.18434054979088   -1.61535321031944
O           1.53215773488084    0.22164099489075   -1.87004399676515
O           1.83246168543435   -2.08736988560600   -2.62305959591567
O           2.15569245310044   -1.48322058059490   -0.26071372930769
O          -0.06067191438983   -1.50758617815208   -1.23304448252784
H          -0.19159672723593   -1.28546332379240   -0.27125591651638
H           2.56747703335685   -0.63131028935233    0.05971744921816
O           0.54779756278631    1.57733054067608    1.38861552492218
H           0.23244468816630    2.27758352824099    1.96111499706332
O          -2.16925169970983    0.46330214523180   -1.51841528767892
H          -1.64832741924438   -0.27389064378154   -1.85245064818902
H          -2.60117707098272    0.12879150972377   -0.70204129715576
O          -0.13703175853063   -0.98773069140563    1.32626277336764
H           0.06054145242632   -0.02509540642630    1.41500924222928
H           0.68114646157719   -1.45721428506580    1.51288794186874
O           3.02608857884371    0.69608754110301    0.81850070705884
H           2.18536144342931    1.15815148623205    1.02208626740308
H           3.50870220925517    0.59796827006459    1.64165232928492
O          -0.14500583462443    2.12226150836454   -0.98595213783110
H          -0.98597384208278    1.65721139809492   -1.20541671059196
H           0.25147763440350    1.84075523839715    0.44010255859010
H           0.54162489639649    1.62237908740587   -1.46378250669549
N          -3.10884025491734   -0.71109914879301    0.78235975915609
H          -2.23174757121146   -0.98559131162732    1.21061188443491
H          -3.62265180800963   -1.55381077162494    0.55907224637814
H          -3.64535517496613   -0.18974017239673    1.46353582852610
