    26
        -50.46018303  Gyration_radius:  2.45988673134 Dipole_moment: 4.611
 S           1.37283048802379   -1.04200971964276    1.01746706179454
O           2.21508761615974   -0.06732396193152    0.31507563558790
O           2.04932991309453   -2.18503311755552    1.52571888057568
O           0.74123930842751   -0.23983184157251    2.22744295732671
O           0.21766573871628   -1.39129181058918    0.16086919295895
H          -1.26807707442762   -0.88193108315969    0.03500482929972
H           0.61323933422647    0.63972258530308    1.83316100100999
O          -2.18781254501676   -0.52257280271838   -0.09334376669654
H          -2.69652039697508   -1.23375016758091   -0.48470064879925
O          -2.07872725595544    0.64261657611426    2.36781467934135
H          -1.46305095338176    0.03518020618444    2.79214663269752
H          -2.34249616765967    0.21207273233982    1.53315542151525
O           0.84215434571594   -2.26291099085516   -2.21591590480351
H           0.54219408126097   -2.08588889472722   -1.29196963239965
H           1.56345773448824   -2.88898435679631   -2.13637234523436
O          -0.19710499003635    2.15633096182226    1.33590332841275
H           0.04226108413031    2.91116772994804    1.87529245819090
H          -1.00488255403879    1.74960223391767    1.74941405618004
O          -0.97087423480536    1.62858736837469   -1.26231575623322
H           0.33935089921588    0.90091454933512   -1.83339695317083
H          -1.57331504891686    0.91262885961792   -0.98837767817782
H          -0.65994929145113    2.01357115625699   -0.42610678963506
N           1.25403282851050    0.39338707610074   -2.00738238684796
H           1.71655761476729    0.25500904172327   -1.03523772434468
H           1.85606055481560    0.92007518044295   -2.63007762279554
H           1.07734895111405   -0.56933753031974   -2.36326893575237
