    26
        -50.43857446  Gyration_radius:  2.52945851808 Dipole_moment: 9.031
 S          -1.74330843705133   -1.72732762022435   -0.16641475546939
O          -1.95235643578387   -0.77095852970839   -1.21281299542183
O          -2.80861124347108   -2.58550729816321    0.18820792734533
O          -0.45226929513498   -2.54547925164394   -0.51616150960250
O          -1.27615859731346   -0.96221024139884    1.11950614664539
H          -0.30121933440533   -0.77791220736454    1.03609024546373
H          -0.12653781046971   -2.23591843111407   -1.40813541725062
O           1.40024360595661    0.66570093381067   -1.51758649484819
H           2.01471166910046    1.34869405307975   -1.78864750679406
O           0.64894888313861   -1.64604549530283   -2.67332294087102
H           0.91801194192682   -0.74508751519610   -2.39494747700603
H           1.43688335325063   -2.10317663002717   -2.97382642346939
O           1.29799027629298   -0.71086330684320    0.75072263042241
H           1.41654864528936   -1.62596108820580    0.48017760819974
H           1.40504694604541   -0.15809369884049   -0.05961914819873
O          -1.36259715065835    1.93291739342172    1.27814455743218
H          -1.75168161216673    1.06436089844916    1.42170006815560
H          -0.52988109291056    1.93536459339874    1.79925735514401
O          -0.90616280159416    1.69845405452473   -1.34273131816733
H           0.48184221496674    1.12454502267888   -1.46522585708293
H          -1.44216761830808    0.89652294142403   -1.48092303344860
H          -1.08729346820756    1.95752329159399   -0.40901488717887
N           0.96035152657297    1.58405442213601    2.70539687166002
H           0.74933159352906    1.35599027402766    3.66840287241414
H           1.69188063411766    2.28298520311945    2.70333568534644
H           1.31845362718441    0.74742823241089    2.25842781656657
