    26
        -50.44599983  Gyration_radius:  2.48257797418 Dipole_moment: 3.213
 S           0.93962629675501   -0.15272011230774    1.91499759238665
O           1.13569151174605    0.96132046647094    1.02230007270612
O           1.75766968858503   -0.22385650380654    3.06506549220669
O          -0.56727110637519   -0.17167746440121    2.31845048400244
O           1.09904500755126   -1.47125030915189    1.11868140821996
H           0.47046052135858   -1.48826979638396    0.33335800453681
H          -1.07738729796592    0.48291858728531    1.77198612642133
O          -0.51018685521241   -1.60932704815565   -0.87863529163223
H          -0.35670065551887   -2.44443228170572   -1.32438922600911
O          -0.29285868903482    2.23618536781203   -0.93041070882270
H           0.35360257438675    1.98491547454429   -0.25183754713025
H          -1.14804695543338    2.10855250667345   -0.50311212206052
O          -2.88775404392013   -1.17367785136488    0.32925905824531
H          -2.10292991462115   -1.37306584272361   -0.22004821986446
H          -2.75027222437001   -1.63229821792176    1.16141843037097
O          -2.21998430488725    1.29307541063946    0.91755912402451
H          -2.86720766116115    1.71252160056752    1.48734891722129
H          -2.62308453270190    0.44696152989721    0.59119127617142
O           0.41997032808714    0.13832461472818   -2.42501505481471
H           0.09594813697164    0.99218910700464   -2.05796135197347
H           1.36640621665989    0.09541399344504   -2.14682732660919
H          -0.18020490658826   -0.87703154616612   -1.54493359693980
N           2.80292259092531    0.01515601192745   -1.14471403572640
H           2.38470299611334    0.43758876256596   -0.31749141615166
H           3.58367061437304    0.59612946434818   -1.42355364551539
H           3.17417266426540   -0.88364592382539   -0.86268645326183
