    26
        -50.46018316  Gyration_radius:  2.46010243069 Dipole_moment: 4.610
 S           1.38333125574605   -1.42583204934042    0.24937442329710
O           2.21387751062095   -0.21632570402294    0.25628731885791
O           2.07615424533400   -2.64547969821510    0.01515164823360
O           0.72521153163488   -1.47833242051650    1.68833858679844
O           0.24314303907010   -1.22600234917340   -0.67274194867836
H          -1.25030505668395   -0.75317862719113   -0.50504001635149
H           0.58445841919062   -0.53431860295084    1.87412974516994
O          -2.17542122221399   -0.39519623941011   -0.41711638866318
H          -2.66803759547631   -0.75334903564448   -1.15650834108687
O          -0.24874095600811    0.98136274202887    2.33436923201804
H          -1.05251747487223    0.40228089821541    2.42162419237057
H          -0.02728759996011    1.28574625052742    3.21546914696040
O           0.90193553339383   -0.54888899638157   -3.10314536779687
H           0.59159750283499   -0.94424055837289   -2.25312787429993
H           1.63378798851378   -1.09742788456753   -3.38966803684506
O          -2.11122183790569   -0.86861869037928    2.26559688318506
H          -2.35873960454435   -0.73900012552697    1.33095004063655
H          -1.48870211635895   -1.60378645158386    2.27157179161446
O          -0.99024906074779    2.04830720459110   -0.10242408464610
H          -1.58101591688267    1.29954560635594   -0.30474889408782
H          -0.69417175385247    1.88111330277646    0.80779331038086
H           0.33849945696644    1.79988611141329   -0.96495366210417
N           1.26406186258237    1.49667674837317   -1.38463771953257
H           1.86176197871509    2.29290644403063   -1.57526671742003
H           1.10793286264049    0.91782693585506   -2.23624781768842
H           1.72065700826645    0.82432521911596   -0.66502944033130
