    26
        -50.45115294  Gyration_radius:  2.4272949232 Dipole_moment: 2.781
 S           0.68780292325790    0.36466621879816   -1.62213620134612
O          -0.41466643065702    1.09054327929820   -2.16549405062653
O           1.93886859933975    0.37686404101657   -2.30057415728368
O           0.89484601671292    0.84304293771912   -0.15671742817781
O           0.28133216310699   -1.12771023352613   -1.44187203334448
H          -0.64415717472278   -1.20002220565299   -1.03043909394461
H           1.88623371689378    0.54044150131990    0.04305278289537
O          -2.01502639936937   -1.28827208033384   -0.33676204326047
H          -2.63241461987390   -1.80971997706851   -0.85286313195959
O          -0.11243701457679   -1.05426307068161    1.71761856396144
H          -0.92390188746854   -1.33937005009585    1.27898143493417
H           0.14619376389682   -0.23394080062278    1.27911058976072
O           3.17899541776618   -0.08418641066210    0.05475289698335
H           2.92864845278924   -1.01855554773487    0.29100010414629
H           3.30306437538680   -0.05737657661661   -0.90570299944403
O           1.95811487365927   -2.36758460736359    0.50087669527180
H           1.28641522400442   -2.06650638177391    1.14493316406510
H           1.49346416353032   -2.43211315137978   -0.34087646193363
O          -2.59362670255319    1.17413398603381   -0.57793617126268
H          -2.23532102843643    1.61433629509343    0.22958294567505
H          -1.93404047269667    1.33863861533413   -1.27570791027869
H          -2.34273974261034   -0.32119637211737   -0.39030899411249
N          -1.22953524784933    2.18401958320537    1.54528514416234
H          -1.38378948410825    3.13879943310671    1.84258822587407
H          -0.32057953363758    2.13559902498829    1.09751966464474
H          -1.20174394184428    1.59973256968664    2.37208845452794
