    26
        -50.44600001  Gyration_radius:  2.48322663584 Dipole_moment: 3.218
 S           0.52289032844091    0.33658797137757    2.04786018960622
O          -0.53638291637704    1.04226310292074    1.37216795504569
O           0.89297095753421    0.78442201805871    3.33599303718622
O           0.12969374176614   -1.17231057996280    2.09030211332795
O           1.78379066608789    0.33938474656559    1.14871677691066
H           1.57479438045834   -0.04226800773733    0.24163280289383
H          -0.66953295983510   -1.33511750851764    1.52280163545361
O           1.34227331318074   -0.66749548407219   -1.17277312103101
H           2.15978179305929   -0.62682760828095   -1.67245017980650
O          -1.81480726111528   -1.96372185198672    0.53087676737997
H          -2.36974260925537   -2.60377260865015    0.98027090942664
H          -1.13822705212876   -2.47500876800127    0.01541426935721
O          -2.27570686299551    0.55388440521819   -0.68030303290847
H          -1.81189244430317    0.91325053050700    0.09251281877754
H          -2.37149352009594   -0.38563982435015   -0.48423781378946
O           0.32048550130567   -3.07774705108103   -0.50681065071221
H           0.84887469353501   -3.28766956888560    0.26674060018348
H           0.70266374303341   -2.25732685491301   -0.87888943542104
O          -0.15223090483782    1.05693648549719   -2.22264765974985
H           0.69775139763454    0.00457662055930   -1.64441853712438
H          -1.04027297492099    0.88363849549657   -1.83494371381338
H           0.17515814220682    1.85313072623403   -1.73898272003619
N           0.71868706348385    2.90778313044286   -0.44832137948507
H           1.70061909932573    2.94990661331348   -0.20473047237364
H           0.24525835947151    2.41296702997818    0.30581692816078
H           0.36459627534983    3.85617384025042   -0.46159806745231
