    26
        -50.45019500  Gyration_radius:  2.45226328252 Dipole_moment: 4.168
 S           0.83061083772751   -1.63270863949079   -0.76313729559212
O           0.99636922706566   -0.65881278271178    0.28577903370343
O           0.89435765679239   -2.99913235199537   -0.38283319547237
O          -0.52790263619272   -1.39164388674345   -1.46723328940933
O           1.87107482449929   -1.32169154762839   -1.86260237766316
H           2.25784631261330   -0.41057494584670   -1.67305956972303
H          -0.86773704827541   -0.45623951525771   -1.32603028482395
O          -1.52766903892762    0.93375967514191   -1.03403871310063
H          -2.36730272488289    0.99363324152698   -1.49307773178619
O           2.75189906004866    0.97801257492573   -1.10961617151425
H           1.99001776875747    1.59026110945238   -1.02695758910366
H           2.96785940694840    0.72432456100799   -0.20782897007860
O           0.59284022610341    2.58690685873303   -0.75861706214822
H           0.48690404368060    3.35078909022076   -1.32779446936876
H          -0.18815493391492    2.01393587179051   -0.89559951446845
O           0.45136060774151    1.44095532290037    1.90471776995365
H           0.75499237950584    0.62003096712039    1.48524114722508
H           0.56934114248813    2.12130578713916    1.23186522998562
O          -1.98524824906240    0.42352834707197    1.38609730421806
H          -1.20236316143997    0.85145709251394    1.79627830683331
H          -1.75876571259361    0.75238336622217   -0.03315349010624
H          -1.81256975082051   -0.54994362185697    1.45085831648707
N          -1.37641948548596   -2.22171670568946    1.44978831445694
H          -0.56364339466212   -2.38046285259778    0.86244956446882
H          -2.10736159068059   -2.84146566766831    1.12102724470833
H          -1.13033575709303   -2.51689133792889    2.38747746233748
