    26
        -50.45115280  Gyration_radius:  2.42728812613 Dipole_moment: 2.783
 S          -0.13131640351479    1.52706189498491    0.94274328997592
O          -0.44731508088109    2.41445482466799   -0.12961222416844
O          -0.26945675857172    1.97330321994581    2.28709585722491
O          -0.96513172029121    0.22895536020468    0.74522515756116
O           1.33282118764699    1.02311865950627    0.77788715457404
H           1.51594979499585    0.76293814075006   -0.18639875100972
H          -0.94608949546526   -0.20172236068089    1.70873299213680
O           1.75092140683349    0.30216874680497   -1.63570006388699
H           2.50170093777166    0.75255401547437   -2.02668209688630
O           0.63128832777061   -1.89501043800266   -0.28850747818883
H          -0.10391852347659   -1.30119815635210   -0.09116642743036
H           1.18412446735109   -1.42295547217103   -0.92389770375090
O           1.68828573886145   -1.42528148173451    2.19219441229554
H           1.40673959707714   -1.84823822665431    1.35643379164689
H           2.04511618955013   -0.56751793244817    1.93622133778679
O          -0.64642284252557   -0.58823645990177    3.05876009304533
H          -0.48033872948466    0.31142435329999    3.37765909594272
H           0.24099915722362   -1.02195991847284    2.93213359258285
O          -0.39626864605990    1.28200836774933   -2.57684148183404
H          -0.54184468588319    1.88191063426040   -1.82321876827311
H           0.92102491547411    0.66422791128135   -2.11073118292796
H          -1.07788371479437    0.57441198856844   -2.48288970246053
N          -2.14413626761347   -0.68596568822147   -1.89741496440771
H          -1.78550886220818   -1.63209156992112   -1.94221999658758
H          -3.08107159575198   -0.68873687753318   -2.27953598869310
H          -2.20226836405803   -0.41962350547850   -0.92026992425337
