    26
        -50.45293930  Gyration_radius:  2.47537843645 Dipole_moment: 1.568
 S           0.46074609298354   -1.12608158652277    0.86717172251699
O          -0.02478632751397    0.18714255640008    1.26800897257732
O          -0.28549005008925   -2.21504262420831    1.44818989875121
O           0.43188301167762   -1.21081529512403   -0.62205958340171
O           1.93071168023911   -1.27519040800247    1.28788869209964
H           2.43592216443690   -0.51703654467307    0.87159958213970
H          -0.85992415486613   -1.33009036285478   -1.15441401412697
O          -1.90809793644519   -1.28003116091489   -1.37452810629571
H          -2.32421998477795   -1.94739744620860   -0.70292250679838
O           3.23169437283473    0.59700898103015    0.07640670751999
H           3.95478805908831    0.17995379836923   -0.39608855531241
H           2.58423944676404    0.90738855446530   -0.61718588640961
O          -2.59592813999824   -2.83514112735607    0.48962659007077
H          -2.58577385642271   -3.78435234888837    0.35067183502245
H          -1.76444767199274   -2.62178570978171    0.99410517878921
O           1.27809083910528    1.17426830903340   -1.56038058143095
H           0.89557467745354    0.30916792976305   -1.32301735077383
H           0.84027454232777    1.84829207464659   -1.00244579330306
O          -2.01371756329113    0.96018005922415   -0.22530493427743
H          -1.63165050629183    1.69991682487229   -0.70661118731412
H          -2.12684844059856   -0.33740537675210   -1.00984651876157
H          -1.33070807017131    0.70208894227214    0.44797499508760
N           0.33520141697061    2.90357566489666    0.37723299538421
H           1.19981207903378    3.39076197163248    0.58137964544167
H           0.29617182046374    2.09697163283527    0.99877439939062
H          -0.42351750090561    3.52365269181491    0.63577381344749
