    26
        -50.45958872  Gyration_radius:  2.41995522613 Dipole_moment: 7.270
 S          -0.19258132175359   -1.83539916636115    0.21052558595375
O          -0.68856944795349   -1.16544447116670   -0.99238271815557
O           1.03120759797469   -2.55528454376004   -0.00073562105466
O          -0.16667417047658   -0.90649614391377    1.33355614383065
O          -1.28884153280760   -2.91672067784792    0.59229988191167
H          -0.91385745611763   -3.68109755901137    0.17019809458863
H           0.94396793451147    0.27345066432543    1.22500902505560
O           1.59033171664754    1.00801834706181    1.09640734853847
H           1.97570056694664    1.19157804865158    1.95409656901418
O           2.81997398674153   -0.68154913303812   -0.80897120288485
H           2.31102956213074   -1.46976801459261   -0.55012828827561
H           2.65737826604887   -0.02458588995094   -0.11812639738334
O          -1.82069786494884    1.07755053976576   -0.72351568787634
H          -1.46495290669767    0.13627013140018   -0.88882891207993
H          -2.07618874238342    1.08897207279639    0.29401867781488
O           1.07163661874414    0.28561877071048   -2.58549967599019
H           1.88448089695748   -0.04060269524562   -2.14096552307721
H           0.38546989806763   -0.34076088423752   -2.31206080930506
O           0.35188089435783    2.22848502705095   -1.01913445715526
H           0.69164072722083    1.62630400144258   -1.74744100744507
H          -0.92710201153118    1.68437399277337   -0.85774630348670
H           0.86903140658134    1.97869953805789   -0.23250985805810
N          -2.27242028066881    0.85140372042000    1.77741423512508
H          -1.55303865381450    0.12778050009827    1.86676842395405
H          -3.16247816602069    0.45199979334200    2.04388992997628
H          -2.05632751776804    1.60720403124046    2.41386257647588
