    26
        -50.47508732  Gyration_radius:  2.41602580947 Dipole_moment: 4.306
 S           0.87692259333842   -1.28543515158807   -0.82873238430795
O           0.84376760448631   -0.01615774998399   -1.57604690202766
O           0.77974765920785   -2.43530003529697   -1.86596297979737
O           2.10182763157420   -1.43247992222767   -0.08129217221348
O          -0.29781825294410   -1.37482190556661    0.03941716642281
O          -2.52403345145420   -0.22219512000367   -0.59685626874235
H          -3.23153523816712   -0.73137696692467   -0.19706780922034
H          -1.68284350380751   -0.68709692070675   -0.35093888264028
O           2.31918380936101    0.35792675891515    1.78739525530842
H           3.20939370101637    0.31760647117740    2.14087730426937
H           2.26403541743683   -0.37184682192838    1.11448991245793
O          -0.37594592896441   -0.24970442085051    2.47673114955493
H          -0.37897643289007   -0.82221508004622    1.68612832906940
H           0.55418389358111   -0.03584726516752    2.61821119908775
O          -1.57069780894068    1.70209570786768    1.12345915899563
H          -1.29115234679232    1.04466900376641    1.80458480929158
H          -2.05704055721331    1.18000121023057    0.45666039738767
O          -1.18337062260177   -1.04529713858652   -2.95705801846246
H          -0.00401266641187   -2.17157461121762   -2.39619951086717
H          -1.91680210250640   -0.81501425277326   -2.36707224154124
H          -0.49609343101760   -0.38853367408780   -2.76140167387274
N           0.82410314229595    1.92759248228197    0.14487943746065
H           0.84200473153693    1.20422854053873   -0.63783486518515
H          -0.18813573116437    1.95055450749012    0.53492065014123
H           1.46120270699923    1.56291195306020    0.87798001892810
H           1.12208519406891    2.83731040174375   -0.18927105946687
