    26
        -50.46815422  Gyration_radius:  2.47599132452 Dipole_moment: 5.891
 S           0.28545174649166   -0.57406172820290   -0.93565774485697
O           0.71763101731696   -1.51285402545688   -2.08180416501638
O          -0.97000703568957   -1.06185098381368   -0.37986648873619
O           1.34519969838060   -0.53393403625743    0.06320188671828
O           0.09533731705697    0.75242520645731   -1.53791158311051
O           0.92162574786117    1.18053081469339    2.01810445844816
H           0.92672289015290    2.17978656232607    0.96386394791869
H           1.23322151909187    0.43005866827882    1.46469745559642
O          -0.61821399479586   -3.52314742050649    0.52912684631025
H          -0.82659452612043   -2.60046621875515    0.26742633368628
H          -1.29918379080405   -4.07233752079520    0.13743112250879
O          -1.91161241881440    2.32069615583008   -0.73228561867320
H          -1.30104554921511    1.67166872871817   -1.14207417909506
H          -2.75182867704553    2.21622894597101   -1.18078665616687
O           1.83977374139293   -3.13031673647805   -0.45412739886536
H           1.19853622791457   -2.24979838401966   -1.59806195376755
H           2.04198791129527   -2.32887199127294    0.05134814305202
H           1.04404734027241   -3.50859296466282   -0.02326248753702
O          -1.61751583519065    0.70989758523871    1.52700237049261
H          -1.91256652045907    1.41739277018330    0.93333756022339
H          -1.47405305045524   -0.05627481053083    0.93887676517860
H          -0.05015120381450    1.01011414253303    2.10717773383711
N           0.81932392271659    2.73063867036855   -0.00063983700534
H           1.61942388703784    3.31470934689554   -0.21626116087445
H          -0.04896820659217    3.26590355740520   -0.00391457635217
H           0.69345784201289    1.95245565585100   -0.71494079391475
