    26
        -50.44405000  Gyration_radius:  2.47959774893 Dipole_moment: 5.983
 S           0.90277435710973   -2.17215541074705    0.42290861821405
O           1.25080331550736   -0.88787993650239    0.97737925079127
O           1.27972532834178   -3.31550913449666    1.16596345875596
O          -0.63438079304831   -2.16403829887525    0.14141374960269
O           1.45847375571493   -2.27142673737397   -1.01581458195916
H           0.98642179371041   -1.56518632584444   -1.53008355590310
H          -1.10829049088280   -1.52392467618121    0.74672623059855
O          -1.91965987353420   -0.44313594983046    1.57347720307496
H          -2.38017730446722   -0.81855456292281    2.32519138304115
O          -1.94567236111215    0.71326531158901   -0.89686913206422
H          -2.83298329097137    0.88490960163351   -1.21583275295318
H          -2.03468840802266    0.30621270277751   -0.01620610018869
O           0.03299855216907   -0.52515196335226   -2.32898596526148
H          -0.47974806354792   -1.06415961894086   -2.93524625052994
H          -0.61310750885892   -0.04671805783000   -1.77103340044621
O          -0.09295300360561    2.62421902814065    0.21405787556513
H          -0.78325231963264    2.17781620441179   -0.29096897777050
H           0.75331119545263    2.30131912750857   -0.17546560654144
O          -0.04816508685095    1.06338398150134    2.35774806511267
H          -0.05337085494478    1.78586319710216    1.67749865349781
H          -1.20053660230088    0.19158915204181    1.95746646291386
H           0.65730305679414    0.46037009612990    2.07504641249671
N           2.03371173914789    1.28150554836890   -0.80052223188866
H           1.83437037040717    0.92068145540380   -1.72570593142440
H           1.93702111777244    0.50610074538157   -0.14815894746176
H           3.00007136963527    1.58060454088618   -0.78398391925120
