    26
        -50.44198527  Gyration_radius:  2.6736957919 Dipole_moment: 8.580
 S           0.14474469772873    0.42521740692159   -2.87735151678316
O           0.57076125859792   -0.56196665238013   -1.91060928727484
O           0.36756064898276    0.13582752249090   -4.24511747424891
O          -1.33304295196320    0.74937939258387   -2.63296428263002
O           0.89218947650099    1.75576807271307   -2.49852278220243
H           1.06250900019170    1.71357944784307   -1.53018051574454
H          -1.46792767240467    0.98604201141599   -1.59947954088738
O           1.90687394705270   -0.94070992433277    0.76113527173120
H           2.59390055076441   -1.19432941027705    0.14221875259944
O          -1.88523751071049   -0.80109859344983    1.72764748100524
H          -2.54032504295365   -1.26091474481521    2.25403819055547
H          -1.08575945940397   -0.70307953110533    2.29092298753322
O           0.43995394212131   -0.76266829900737    3.11276599024284
H           1.08474867691216   -0.69703576241536    2.39085802554445
H           0.61184042806015   -1.60261234353915    3.54297321609413
O           1.34819081755111    1.58418428528727    0.11684558596241
H           1.51569442663975    0.62559177780567    0.30771551483678
H           2.14916900917424    2.05495223866664    0.35463308694047
O          -0.22713509333196   -2.22491620404897   -0.01971333743397
H          -0.10146761660179   -1.77105113041501   -0.87427495712690
H           1.11081175978942   -1.48260635684554    0.47997235705858
H          -0.96176023610498   -1.77366288896456    0.42527479589648
N          -1.54877425796680    1.36536666912081   -0.18444577792509
H          -0.61848850475534    1.64731073665995    0.10849299410964
H          -1.84436466013212    0.59349170959729    0.40815881266697
H          -2.18466562390165    2.13994056060539   -0.05099360053280
