    26
        -50.45958880  Gyration_radius:  2.41990395519 Dipole_moment: 7.270
 S           1.06150067778098    1.13626833796567    1.01741779038515
O           0.27433654639415    1.65311565239109   -0.10280795944284
O           0.49127047232076    1.43337611931856    2.30079770698371
O           1.38308066870573   -0.26959758070585    0.80518158781456
O           2.45430680066178    1.89338221296619    0.95945634211320
H           2.28141701266410    2.59472662608012    1.57692144589772
H           0.11805700492704   -1.28393484963852    0.89465626499533
O          -0.68217546242129   -1.86150942836366    0.89894659515592
H          -0.42976158109584   -2.68187563164529    1.32458733290951
O          -1.95264040237246    0.25496531746384    2.27833478837474
H          -1.12630287113942    0.74114224254383    2.44614531250859
H          -1.68438232808618   -0.61898293177426    1.96285137763604
O           0.15739078657708    0.27025674017581   -2.21484590230596
H           0.98027050539567   -0.37371031337607   -2.11723712553870
H           0.24463702120366    0.91919055723084   -1.43330639845798
O          -2.48675323880635    1.30990017979548   -0.11936601665664
H          -1.61350790441294    1.72483697373078   -0.17653909218914
H          -2.54446743206207    1.00098920129019    0.81126199299497
O          -1.86501446909355   -0.88081657151288   -1.36808687025635
H          -1.54943678509673   -1.39717452952157   -0.60497292330814
H          -2.28912019848978   -0.06500023342731   -0.96398359114761
H          -0.74149811259089   -0.28347584380979   -1.95049099576064
N           2.18261469426754   -1.19026572585180   -1.69152752910841
H           2.12263778033686   -0.95983067898019   -0.69529193224123
H           3.07650109368895   -0.87088559960076   -2.04038171213136
H           2.13703972074042   -2.19509025274058   -1.79772048921867
