    26
        -50.45958869  Gyration_radius:  2.4198982805 Dipole_moment: 7.272
 S           1.58217492640667    0.89175601606559   -0.38839023743465
O           0.60103476568643    0.61901668781900   -1.43944668953001
O           1.58015111553079    2.25733628824296    0.05382434906251
O           1.46859149298591   -0.09425885727135    0.67910596742725
O           3.00499573923809    0.63368907989166   -1.04086374801042
H           3.22714627150094    1.52121546801699   -1.29786785205594
H           0.11237251487613    0.00522855721868    1.56671239297899
O          -0.74871045084488    0.05998998616627    2.04577815670721
H          -0.56497318865518   -0.12357549893361    2.96794722485616
O          -1.99439130240014    1.59031702199225   -1.18764696339234
H          -1.79702288682759    2.17467447748420   -0.42323604980670
H          -1.12373807832078    1.38557636672288   -1.55909886479849
O          -0.55914199408886   -1.62556950673168   -1.42950856711157
H           0.07163976923831   -2.21109695666054   -0.82940779830656
H          -0.05767078271202   -0.74543276606110   -1.54749608585163
O          -0.92515742618173    2.68382108576057    1.00534811925971
H          -0.99639348410990    1.90232238646181    1.57052648477614
H          -0.00219780087758    2.70494321659020    0.69711662156037
O          -2.37448707921888   -0.69977960518000   -0.02242833529710
H          -1.94557066355272   -0.50109712540073    0.82917378700563
H          -2.42931198431457    0.18657567914695   -0.49130091178333
H          -1.41424719585697   -1.32048022939540   -0.82937891962441
N           1.12174816102876   -2.78912216737296    0.09705517971773
H           1.88888031771831   -3.26925254291867   -0.35431467859499
H           0.81036649561080   -3.34745666290527    0.88083648112934
H           1.46391273813048   -1.88934039875236    0.44696094711435
