    26
        -50.46854145  Gyration_radius:  2.40484041288 Dipole_moment: 4.504
 S           1.16186826412928   -1.28329429802093   -0.61052353743218
O           0.07533474313425   -1.01775883533827   -1.54957562223269
O           1.52426758250976   -2.66005570205211   -0.49555464850282
O           2.43902549972611   -0.52993550465717   -1.24253110701087
O           0.96166911494473   -0.57904947693316    0.64744956497410
H           0.35916866121732    0.67814795898017    1.52246533949689
H           2.89713179579113   -1.23766348585675   -1.68363604366115
O           0.06240824194901    1.50780590819770    1.95416057750311
H           0.14512314678676    1.36343493115164    2.89788312339448
O           1.68341955223564    2.12450581956360   -0.30727592354553
H           2.07322069385821    1.24840942979744   -0.42315851078821
H           1.33079172379187    2.14832442954962    0.59544482140923
O          -0.37845915935476   -2.71903667714392    1.57854011041571
H           0.03925966166833   -3.40413310984207    1.04853029375649
H           0.19281041013335   -1.94574709598381    1.45631782388588
O          -2.13515432190364   -1.27111044593996    0.05267561783846
H          -1.46155446477513   -1.29042498037976   -0.64498157739603
H          -1.78467886941058   -1.85283336473740    0.74971477413441
O          -2.24627238531681    1.35937703339972    0.45753711457327
H          -1.59421000547440    1.50426782532681    1.16508706870310
H          -1.36471072375295    1.55707083785696   -0.77526666446706
H          -2.37690874195111    0.38211087548071    0.40411787784410
N          -0.60011782481355    1.51725344288939   -1.54295581115816
H          -0.91034541889555    1.93869728527181   -2.41081818756506
H          -0.36703912804774    0.49577666502756   -1.67149374153003
H           0.27395196170687    1.96586053500483   -1.17215273237620
