    26
        -50.46854108  Gyration_radius:  2.40497188619 Dipole_moment: 4.517
 S           1.18786643075516   -1.38607799067444   -0.19268545889614
O           0.80140201232027   -0.79346473609126   -1.47040098283312
O           1.30836458704326   -2.80917786929264   -0.21117336796978
O           2.66587229625355   -0.80945689123095    0.09197965819679
O           0.40909694229150   -0.83531146201171    0.90662166977675
H          -0.45188343096021    0.38522656859675    1.59785191291172
H           3.22406533223101   -1.52119609722687   -0.20346578071166
O          -0.85633776120741    1.19129753445571    1.98456166625866
H          -1.29984586272027    0.91043342113393    2.78616789918605
O          -1.93525322953730   -0.83966434135818   -1.31141499956427
H          -0.99779416969695   -0.89110283108882   -1.55499520099464
H          -2.06539476356950   -1.56711103432238   -0.67808805263118
O          -1.40384073790800   -2.79007454893841    0.53894748890022
H          -0.79180618435305   -2.12930597551469    0.89658218647234
H          -0.82812048094078   -3.46090760085686    0.16030525451318
O           1.76806416479651    1.78937202646145    1.05362284953359
H           0.99069107180511    1.75630082535415    1.63202627235725
H           2.08045087677458    0.87953683822643    0.96696367729565
O          -2.01191671366113    1.68585307470533   -0.46750840176883
H          -0.59463977241370    1.87823013133024   -1.00620259868233
H          -2.17999635771022    0.76704153224966   -0.78762196556232
H          -1.82918307360841    1.60823484410171    0.48502819194068
N           0.45480322456610    1.79875516337701   -1.26697073752624
H           1.03126120246301    2.02024181538773   -0.41767451048856
H           0.69553106988629    2.38402270047976   -2.05850196148385
H           0.62854332065899    0.77830490779295   -1.47395470101084
