    26
        -50.46854125  Gyration_radius:  2.40494834899 Dipole_moment: 4.515
 S          -0.98971937597098   -1.46297787359149   -0.49872072953033
O          -0.87151134519536   -0.47312189971126   -1.56610526834182
O          -2.27595947110507   -2.07564472377113   -0.39733754595975
O           0.03816030487303   -2.63308207270756   -0.91394298076564
O          -0.42889474236998   -0.96850943404078    0.75003341346692
H           0.62639455715588   -0.02133166475503    1.58515919913593
H          -0.53456540534713   -3.27327280377957   -1.32324566729985
O           1.35258510183528    0.48664234208525    2.00641387277731
H           1.16527772128125    0.49324779021116    2.94607840391983
O          -2.84807505762015    0.02145494465274    1.39029561117713
H          -3.39843575278964   -0.58905360650946    0.89111706625885
H          -1.97214569694455   -0.39312960986453    1.38497327833182
O          -1.65896349551240    1.82531528941994   -0.29559075859431
H          -1.49872382071831    1.07896306106622   -0.89398070866589
H          -2.21091159616132    1.45642230916247    0.41608127030800
O           2.42505259551592   -1.24849225300339    0.01833609320400
H           1.65131872222871   -1.81797628718829   -0.08141184713530
H           2.31643229635950   -0.78732216224377    0.86418825930743
O           0.86560349607882    2.51322703820117    0.20382670873418
H           1.31551048851941    1.54140581861790   -0.88677194696247
H          -0.11233180064797    2.43701281897449    0.09066442071399
H           1.08409069177708    1.99796224148466    0.99975127649242
N           1.47767192308082    0.69399788317750   -1.54339006368125
H           0.53194642815424    0.24608891575352   -1.68245686173637
H           2.05977277769657   -0.01858574924310   -1.03735053782210
H           1.89042042503410    0.97075967743070   -2.42661393751809
