    26
        -50.44404984  Gyration_radius:  2.47953254724 Dipole_moment: 5.980
 S           0.56833382433681   -0.25001001135029    2.30757600028737
O           0.27121684694847    0.93120963356778    1.53672330837300
O           0.42598598454913   -0.15265139458970    3.71176056659760
O          -0.29532259903721   -1.41869688869853    1.73276032417590
O           1.98999781730498   -0.74230895652758    1.95425964868946
H           1.95139032184290   -0.98950650611238    0.99330971418804
H          -1.12784674748546   -1.07236135070105    1.29951174862239
O          -2.40114843623913   -0.60400314019434    0.48146964659690
H          -3.21297212444759   -0.67249740078043    0.98576947151702
O          -0.78699779026200   -1.43292554938466   -1.55578737208035
H          -1.19231079755706   -2.11331881256230   -2.09557186785285
H          -1.43084744403015   -1.19967072500366   -0.86280257714170
O          -0.51494693287799    1.36677783190261   -2.19331266544464
H           0.38505988131609    1.54619777878770   -1.83280799522878
H          -0.58179761060324    0.40474069153285   -2.22273458626109
O           1.74382066786103   -1.54722217743458   -0.51504726965127
H           0.84465630276536   -1.42191343714881   -0.88035298093686
H           1.88272574685440   -2.49506701496092   -0.45724775385275
O          -1.83371573452355    1.82279852706880    0.06210405390430
H          -1.43501480916004    1.79729461400098   -0.84623192373421
H          -2.24838001133884    0.40278280592758    0.30689576332635
H          -1.07514776533725    1.82840161595529    0.66692213795909
N           1.83289059822475    1.53263138324986   -0.84619907276170
H           2.45572155371227    2.32929901955502   -0.81444246453487
H           2.39560869700496    0.70155883888960   -0.98256734193436
H           1.38904057019791    1.44846063499618    0.06604345716244
