    26
        -50.44029666  Gyration_radius:  2.68689955115 Dipole_moment: 3.968
 S           1.55700749860984    0.38616423316055   -0.55639446019444
O           2.00638367115643   -0.90149064616364   -0.10549903576689
O           2.53148728592238    1.41110659362120   -0.68769326449401
O           0.81414133266842    0.18405514558382   -1.93085047364164
O           0.38966300310280    0.85355302958723    0.33139858337152
H          -0.11995585703148   -0.01272094239985    0.56105547823999
H           1.56041067958067   -0.10644401013131   -2.54335870466440
O          -0.48282609728589   -1.46464585020094    0.82785324986392
H           0.43281946313983   -1.76319578029355    0.73210180475597
O          -2.99831214042771    1.28550919795594    0.44111620966600
H          -3.25440083431222    2.07446904647481   -0.03788813924844
H          -2.66243562723977    0.65399219437059   -0.22876300285243
O          -1.90540669046948   -0.44265652570030   -1.35321265590768
H          -1.65312067116238   -1.12615016447006   -0.71929495024365
H          -1.07781344004296   -0.11829462693458   -1.73020248738730
O          -1.27850006116584    1.55808624764816    2.52466396452851
H          -1.99089599656507    1.48900901816484    1.85629594818888
H          -0.48218876066922    1.74435347310445    2.01859652989125
O          -1.08872688342684   -0.96431673311251    3.31018407484355
H          -0.69249038590010   -1.41759243773703    1.80353184036310
H          -1.12935103358300    0.01426343094258    3.15674678222747
H          -1.96743848919933   -1.22077161249930    3.59532990678230
N           3.11233959579422   -0.49289751325101   -2.86183667081728
H           3.26806758661473   -1.21404115611393   -2.16680003736425
H           3.54543846564652    0.35439665709772   -2.51111537817087
H           3.56610440684209   -0.76374029864283   -3.72596511279105
