    26
        -50.44029667  Gyration_radius:  2.68675087691 Dipole_moment: 3.960
 S           1.66019825993590    0.28134748476353    0.23206802075732
O           1.84303633904820   -1.13193773873525    0.41335199731646
O           2.63195701475378    1.14615062994374    0.80197628630128
O           1.54736972241735    0.55881069736724   -1.31465400198258
O           0.24462513063575    0.67090044926063    0.69423301435106
H          -0.34015416500936   -0.13845312160815    0.43716991553449
H           2.46956739839146    0.32530306097717   -1.64771875938294
O          -0.82464038924481   -1.53724175267403    0.09292836278986
H           0.03877945620872   -1.93507790678848    0.27456626093138
O          -2.87408568633654    1.56302375603183   -0.38468114832041
H          -2.30912466707092    1.08810152913623   -1.02943166569578
H          -2.88929448589757    2.47905825376844   -0.66412957975057
O          -1.18747466891779    0.22578375538335   -2.04840922205896
H          -1.24035713848548   -0.63057896309426   -1.60511420977323
H          -0.26856921422903    0.50870275171402   -1.96037040634028
O          -2.15783323728064    1.01905808279598    2.17714760069322
H          -2.53310097840833    1.23605657394516    1.29900767338043
H          -1.21822907893166    1.20820534989077    2.09798288256890
O          -2.39021130790284   -1.61934330942472    2.17135191145266
H          -3.31544048424501   -1.80379972483605    2.00073752990603
H          -1.41872449003841   -1.71608510770224    0.87615040165518
H          -2.33247408336727   -0.64068612965415    2.31856717903570
N           3.99962101341560   -0.20251606535104   -1.43853616654498
H           4.28627622175894    0.45558481550973   -0.72226898545538
H           4.75838400386014   -0.32514388463834   -2.09824964510692
H           3.81989946502801   -1.08522346599550   -0.97367524629976
