    26
        -50.44727619  Gyration_radius:  2.46771662491 Dipole_moment: 3.890
 S          -1.43306820265130    1.55640734497307   -0.90826828965002
O          -0.52255343190954    2.62148722503339   -0.59670390911443
O          -2.46928722956517    1.78662491071934   -1.84278610203058
O          -0.57903979274459    0.33345347514786   -1.39104646993599
O          -2.07494692811826    1.02386518563054    0.39703470333794
H          -1.35692843943283    0.83293934008305    1.07939395947979
H           0.41031641765290    0.51769022759780   -1.29522623674046
O          -0.27793305570644    0.36421655257497    2.09290011786220
H          -0.63886535095339    0.34584091444010    2.98117809374487
O           1.53988075539602    2.15250020653154    1.04139494198421
H           1.08556576637475    1.52756305781066    1.62734472365880
H           0.82392429592367    2.61750533680965    0.56985644022645
O           1.92556568210264    0.82921376942600   -1.14675777943504
H           2.14184769405126    1.49787394216619   -1.80027400547256
H           1.92625380614039    1.30573133148818   -0.26155060132200
O          -2.28587799295630   -1.67939533319021   -0.54814798727473
H          -3.02571072313546   -1.15775211503719   -0.22807104618649
H          -1.75104402430017   -1.07508211666078   -1.08036770211070
O          -0.26624452698345   -2.02960898160747    1.26397550215266
H           0.50507633383690   -2.13390801342177    0.65226374445134
H          -0.21306751554549   -0.61862935923284    1.79627977946303
H          -1.05325307995369   -2.07053101432267    0.68634916443527
N           1.71917823579496   -2.14749228442928   -0.56610156571374
H           2.56160770424370   -2.65918679642507   -0.33658250806720
H           1.98065530578650   -1.19041225870025   -0.77788768136486
H           1.32794833666781   -2.55091455739036   -1.40819928635883
