    26
        -50.46159681  Gyration_radius:  2.69620832102 Dipole_moment: 1.124
 S           1.66373989442293    1.96070108254516   -0.91647857996033
O           0.76602042882676    3.07856482376438   -0.77163409901190
O           2.24018512298867    1.53570758812570    0.35426230776853
O           1.05876910437601    0.83235373504329   -1.62333963051482
O           2.86695361496688    2.43764263421972   -1.83728135125201
H           3.01830015963950    3.33596484952879   -1.55777755349685
H           0.98381573332269   -0.74561055545778   -1.18743656991033
O           0.81779701318907   -1.69091853705907   -0.95799829751391
H           1.40958736597616   -2.20183802921972   -1.51168719416094
O          -1.31531287918225    1.30901500428466   -0.62536793189320
H          -1.37080605305772    2.26859544948912   -0.67747233480331
H          -0.49798388186759    1.10551591943176   -1.13597123727188
O          -2.34655027343323   -2.29936414134072    1.43296235860095
H          -2.33298300541224   -1.96798029824311    0.50200849833357
H          -2.76159774596750   -3.16183505455468    1.40487976622589
O          -1.95982289313153   -1.40895289501122   -1.03925996052808
H          -2.01956599158063   -0.44542502595072   -1.01536542715684
H          -1.01345783948335   -1.60542703005928   -1.14195258571669
O           0.26979846078893   -1.86303165606850    1.73599721802096
H           0.57064071606962   -1.98109182957390    0.81789844419317
H           0.18582055589239   -0.33083044675102    1.77078430603391
H          -0.67767037492659   -2.12724737497166    1.74482298027242
N           0.11278812238457    0.73704709714434    1.62340672639779
H           1.03882247646606    1.07478101550692    1.22079916201161
H          -0.09696604490320    1.21443228237746    2.49319962227008
H          -0.61032180636307    0.93923138279577    0.89800137306168
