    26
        -50.46159680  Gyration_radius:  2.69622599727 Dipole_moment: 1.126
 S           2.03770089211521   -1.12453269056743   -1.42755256083161
O           1.36660903716629   -1.23408849701384   -2.69801412748342
O           2.47931031097869    0.23607233456507   -1.14230777479768
O           1.25158820949581   -1.66621461583312   -0.31959972028812
O           3.34031282944679   -2.03059328024960   -1.50097273043906
H           3.65333305083871   -1.89660199592314   -2.39087462044218
H           0.86141699219266   -0.97523874615367    1.11391604756605
O           0.50937709766984   -0.60078924674374    1.95637527790304
H           1.00748636220367   -1.02234532150553    2.65779459391683
O          -2.15765867915980   -0.91175289403642    1.18949440587400
H          -1.26347584788294   -0.91646645871610    1.57068113654793
H          -2.03265037703565   -1.05626014528250    0.24291484841798
O          -1.01881094273387   -0.92459830087564   -1.39429317708442
H          -0.23938441857962   -1.33766580943517   -0.95617648802757
H          -0.88699177331842   -1.14249992553510   -2.32260176225999
O          -2.78855112293443    1.64458776611608    1.53591886194476
H          -2.68107927312550    0.67375860235075    1.38527067509271
H          -3.36128028526216    1.73631924997234    2.29777250262124
O          -0.14867189743948    2.04132146128364    1.53960914465853
H          -1.12902594292949    2.03226714427656    1.62011174735361
H           0.15396133149936    1.17876334222775    1.87385197132664
H           0.06067660554339    1.80917144468004    0.03726486200878
N           0.19752581562154    1.47844601755783   -0.98236242404466
H          -0.44924524327666    0.68307494346730   -1.17981794696324
H           1.18372200313171    1.08677691013848   -1.06889233813593
H           0.05380525577933    2.23908870124208   -1.63751040442983
