    26
        -50.46159729  Gyration_radius:  2.69598154749 Dipole_moment: 1.139
 S          -1.39094083160985   -1.49735127077203    1.80964959126108
O          -2.57508853988549   -1.72870276289832    1.02196354653008
O          -0.27218345502272   -2.33908090777471    1.39979407942199
O          -1.00221874032479   -0.08824582066870    1.85313233045855
O          -1.73692450561076   -1.88363409640842    3.31103721518077
H          -2.27497852409507   -2.66480878263627    3.22084330117329
H           0.45274701630924    0.59739226719696    1.53999865097974
O           1.26536131926746    1.09489807141460    1.28310158346579
H           1.65735131865427    1.39631241836798    2.10364803401776
O          -0.03104135321056    2.52154402860759   -0.73743163585962
H           0.43544465434422    2.17080040922993    0.03989013396366
H          -0.83135173987053    1.98716200516046   -0.81780634055868
O           1.64013645604444    1.75987130565776   -2.65574831352724
H           0.96513446421433    2.12224599269483   -2.03139137476395
H           2.17881521945311    2.50269833690751   -2.92946715530616
O          -1.83526214910744    0.35447602261880   -0.59036053376750
H          -2.66397034700421   -0.13449653317240   -0.61707292711062
H          -1.59023697872615    0.32511521422214    0.36313153791308
O           2.38700107244774   -0.12389998459175   -0.91793545881995
H           2.25580242197681    0.54820855695867   -1.62412426876968
H           2.19237085467835    0.32965288563707   -0.07906172473269
H           1.11715610557612   -0.97751819310635   -1.03521574959118
N           0.15135127496381   -1.46174888629121   -1.01394985488059
H           0.06553809094523   -2.14279646758057   -1.76044799944551
H          -0.60092959357157   -0.74031322953779   -1.07313218442026
H           0.04091647916494   -1.92778058923384   -0.06304446281199
