    26
        -50.44521969  Gyration_radius:  2.60086340983 Dipole_moment: 8.091
 S           0.55221106525684   -1.34443473174576   -0.32697953113251
O           1.71075259434435   -0.61214821385089    0.11952913500349
O          -0.38671517317629   -1.72564284308731    0.67300412690529
O          -0.15852002289621   -0.49912212306223   -1.42793111371531
O           0.98911641362271   -2.56998856883967   -1.13254877110304
H           1.83630591869445   -2.27838809743539   -1.63963421727701
H          -0.34401821985771    0.44974402825106   -1.11470712874555
O          -0.53293022957454    1.89367613818534   -0.62132359060283
H          -0.17185750062359    2.54549129063817   -1.22456814572655
O          -2.75709819999981    1.31660725454286    1.06322121920529
H          -2.17018563037571    1.69625995016434    0.39775841264634
H          -2.98630202949395    0.42966269059407    0.72550349437315
O          -2.87673731935887   -1.11637340521866   -0.16245035943239
H          -2.08255116679941   -1.46188375708338    0.28220627374545
H          -2.64573275782266   -1.04770799564651   -1.09113293467210
O          -1.00059016774674    1.10774938727617    3.06647632907941
H          -1.28119723662053    1.71883063509703    3.74900386679855
H          -1.71775161196936    1.10876859093373    2.38800467677586
O           0.98972797473549    1.67571681278877    1.40152517096362
H           0.35454596887959    1.44984691834621    2.12302472901744
H           1.40360263799321    0.83759517240564    1.13697319598481
H           0.07030587438792    1.89779610075961    0.20709407487436
N           3.10426668645292   -1.52945692282266   -2.12893701853704
H           3.03710433461184   -1.01372456793613   -2.99585856327765
H           3.97221352108446   -2.04810297659835   -2.12105529170838
H           3.09203427625219   -0.88077078665660   -1.34619804946484
