    26
        -50.44521983  Gyration_radius:  2.59986011785 Dipole_moment: 8.088
 S           0.65964024176517    0.64565392090524    1.16859794072732
O           1.48656326705835   -0.50902073831454    0.92245836006248
O           0.76225595793852    1.71549993590472    0.23493973087379
O          -0.82118505452160    0.16657241113927    1.26705323377988
O           0.89666115367248    1.16312815134251    2.58915155678934
H           1.06361051118227    0.32456414098576    3.16247060562600
H          -1.09239388245595   -0.39075578278155    0.46167399252320
O          -1.42888343220736   -1.29091947633877   -0.73869946432315
H          -1.78570294592693   -2.14238082042192   -0.48021556887894
O          -1.72091221611073    0.84434592544558   -2.60223728468878
H          -1.86211482147283    0.05625108792450   -2.06334238097234
H          -1.77880078375871    1.59346777643085   -1.97890225818466
O           0.82556922940532    0.40326363684064   -3.28405541292764
H          -0.09676112742763    0.67956890312249   -3.06610760840631
H           0.83867844318912    0.24731576528302   -4.22938825913195
O          -1.71209151352307    2.53148329767995   -0.45896314662536
H          -2.15259805666738    2.13465108395692    0.29543501477504
H          -0.75858115574800    2.42836731016982   -0.29174871254866
O           0.97081239102079   -1.58052666804178   -1.52327073317234
H          -0.49347381545824   -1.46986156317520   -1.11704705089291
H           1.05869422344476   -0.87198267067796   -2.20528302967278
H           1.39155683744143   -1.23209023043714   -0.71988733289678
N           1.37022195970135   -1.11536876908073    3.65403398801127
H           2.16077101660063   -1.22796597331292    4.27430840398578
H           1.62220136096328   -1.44015121360063    2.72421508487468
H           0.59626218193408   -1.66310945095780    4.00481032136734
