    26
        -50.43992323  Gyration_radius:  2.56236316501 Dipole_moment: 5.144
 S           0.50206489534482   -0.95832977168565    2.47555217491198
O           0.13384808207819   -2.03064071382218    1.58833384210495
O           0.91741338433161   -1.29988733527821    3.78330925747687
O           1.60464876077512   -0.12972800848732    1.75062741987454
O          -0.66759094677542    0.05864478376021    2.57496014820431
H          -0.73347577484524    0.60246599786329    1.74716726896717
H           1.65210468862943   -0.47547726103375    0.79568538269967
O           1.80479996944746   -0.89532870654087   -0.67037726216120
H           2.17527955873133   -1.77890269409731   -0.63822107076858
O           1.87488393324620    1.86625125400858   -0.25502689770783
H           2.35439717150101    1.71993258390442    0.56610493390098
H           1.97377861486193    1.04511064691761   -0.75768875232980
O          -0.64383428249701    1.76729134108336    0.59383069369076
H          -0.80271838134761    2.57951731689256    1.07909757683707
H           0.28438677121970    1.82175335771146    0.24891803076087
O          -2.02720131360861   -1.84886935726156    0.08124505620804
H          -2.45906157438402   -2.70441994925004    0.08873862726857
H          -1.27124807972672   -1.92358409432790    0.70084802899273
O          -0.38107683300236   -1.16448019144107   -1.94691094303367
H           0.91905989959857   -1.00148864391190   -1.17780263927404
H          -1.04078905418603   -1.45818587477437   -1.28506410957975
H          -0.67802252312454   -0.26365643120788   -2.21310514993832
N          -1.27345110071186    1.37171381839911   -2.32461610593826
H          -0.65821249576821    2.07564857185966   -2.71147989807962
H          -1.37972948215341    1.55663198488150   -1.33188682943756
H          -2.18025388760441    1.46801738577081   -2.76223877329414
