    26
        -50.45958874  Gyration_radius:  2.4200034248 Dipole_moment: 7.268
 S           1.83405433650068   -0.29582326311547    0.04701941237257
O           1.23434775920583    0.51132254864726   -1.01629333427993
O           2.49766077954818    0.48603377266718    1.05144825288709
O           0.86496937404937   -1.25436559194200    0.56357722810023
O           2.95530680265239   -1.17480392220181   -0.65033376574937
H           3.71430740877113   -0.62775205600133   -0.48370546611021
H          -0.36191129735683   -0.60015624964541    1.40259065977402
O          -1.12150631081501   -0.16289175477427    1.85629748433325
H          -1.35326649125197   -0.71565113826622    2.60371785436097
O          -0.23552402532236    2.77911068510092   -0.35705796781098
H           0.03252730862304    2.79051590051149    0.58789043095915
H           0.41203639168746    2.19562672735196   -0.77929227340563
O          -0.96094006949910   -0.25808715382184   -2.00407616522898
H          -0.99977144446991   -1.26921231917038   -1.72521812708823
H          -0.03204974737446    0.05147816436440   -1.71951614069958
O           0.57269882612378    2.08789999936751    2.09562722047398
H          -0.10143825261059    1.41218547055624    2.25159981316376
H           1.37451331349971    1.60506247847104    1.82854659111910
O          -2.20128443274192    1.08216627810423   -0.33138057151558
H          -1.58764558782559    1.87689174193459   -0.35733025185713
H          -1.60365248187636    0.30572866446417   -1.33107100312093
H          -2.00696494972935    0.64945086171788    0.51918344253056
N          -0.81257496438026   -2.65755504344855   -1.15057122929105
H          -0.12589326738370   -2.38905309195521   -0.43959672563891
H          -0.38540599083459   -3.33463388647025   -1.76848441975663
H          -1.60259300723686   -3.09348783244808   -0.69357096850761
