    26
        -50.43909963  Gyration_radius:  2.70302884952 Dipole_moment: 3.039
 S           2.58216763003203    0.80134961752491    0.57889028558416
O           2.21316306591497    0.88871780118806    1.94901123189846
O           2.38220398024885    1.95375710543366   -0.25539656173559
O           4.11755485956489    0.44767790902787    0.49745110475474
O           1.91872181448246   -0.40775821564006   -0.07110594386084
H           1.16279040217384   -0.75827841380495    0.64782016038317
H           4.40507688842738    0.69040774656665   -0.37963501800394
O           0.27241200165557   -0.99172165807180    1.64741858518612
H           0.78297781974618   -0.60918032084374    2.37312777953136
O          -0.22153527080923    2.16368752406301   -0.83406035970274
H          -0.43977779911425    3.09755585021762   -0.80994256986592
H           0.74053504465085    2.10707367650283   -0.66744497826091
O          -1.51124599991956   -2.37491821191189   -0.32361200513409
H          -0.91219334698601   -2.31289696392150    0.42627417961593
H          -1.09709564049291   -1.82816576293664   -1.03562230819422
O          -3.48125045657390   -0.67989490196344    0.22200529727794
H          -4.08657268883438   -1.08380053858963    0.84478368477479
H          -2.85005522650364   -1.39001681991338   -0.05356355725306
O          -1.47071170187109    0.78505846973266    1.17586911466058
H          -0.47974843641587   -0.29916120827176    1.47587946791682
H          -1.09804977354458    1.29919588340297    0.43580575528387
H          -2.28438665488349    0.34978113044961    0.82763717104658
N          -0.31550071253865   -0.65284465943134   -2.04175859819391
H           0.65063048593700   -0.69484688575522   -1.73720148917342
H          -0.64126458818562    0.28808254373570   -1.84850973926896
H          -0.33884568615803   -0.78886067685794   -3.04412065927451
