    26
        -50.47154174  Gyration_radius:  2.41283426972 Dipole_moment: 5.055
 S          -0.61623812037686    0.73522558542990   -0.08571307848723
O          -0.69231824101813    1.32886341552423   -1.40164853386346
O          -2.04804712303730    0.63078173841523    0.51757658082101
O          -0.10928855439098   -0.64774689194129   -0.14928984027146
O           0.16112270755820    1.52074261096954    0.86247206997107
O          -1.56972857869523   -1.69046607565806   -2.13173516493166
H          -1.02424064028858   -1.62919911998610   -2.91827579389743
H          -1.00523358219283   -1.40148077112543   -1.38823361058659
O           2.58206149501767   -0.83076971989789   -0.08442619514533
H           2.66485581677488   -0.00752625234448   -0.60511754269101
H           1.66174389495796   -1.09734852058722   -0.25423324583641
O          -0.53095874884996   -1.41182350601175    2.34876807083604
H          -0.46112671866639   -1.29176846357404    1.37856727024181
H          -1.34897688296280   -0.97560833872706    2.59607587163379
O           1.99844801720480    1.51567148506761   -1.32085254390700
H           2.07427844248867    2.28695711918828   -0.75482219515837
H           1.04693969967686    1.44444825626849   -1.51546969098320
O          -3.20630051573350    0.41202833440600   -1.75487588637628
H          -2.87171856650767   -0.47885327888078   -1.98920130643661
H          -2.66825910147618    0.53488798343842   -0.26882578819334
H          -2.51711491055712    1.01882678229269   -2.06319936491227
N           1.72882496586407    0.00695693398393    2.23843054330727
H           2.31985172602757    0.35706633851808    2.98345572070725
H           1.02429140816945   -0.68785061665664    2.56764481927602
H           1.13311756475912    0.76591073111193    1.77628060932697
H           2.27401453625530   -0.40792574922558    1.41664820555793
