    26
        -50.43909969  Gyration_radius:  2.70333987109 Dipole_moment: 3.035
 S           1.92888737147992   -0.78868340715903    1.81858430475634
O           0.88870987385490   -1.20825710531774    2.69220795331128
O           2.37402548107464    0.57510585736360    1.89555569291560
O           3.19637552745109   -1.69070110362703    2.08124057901826
O           1.57012424514087   -1.11718450161097    0.37376375423227
H           0.50451291292657   -1.39390455038415    0.38426399895377
H           3.94510974877388   -1.21267791519586    1.73243942557452
O          -0.80823315709905   -1.65398565754364    0.61553362852141
H          -0.72947194943356   -1.92544372550037    1.53958797765613
O          -3.09287120187320    0.89828091502638   -1.50372488124255
H          -2.51857745705099    0.20687039283829   -1.91720968770681
H          -3.98880630691791    0.56142077075523   -1.53969978923640
O          -1.40005197847661   -1.00687345523181   -2.24950775764857
H          -1.30490843002062   -1.57443086317389   -1.47888712316958
H          -0.59401122364032   -0.43449260179378   -2.25392316101237
O           0.56903274410475    2.14718332349768    0.70047807307451
H           0.50223543916996    2.94681474770580    1.22629512838290
H           1.26487735562615    1.60437579702890    1.12208226986877
O          -1.74898005653470    0.69165037521021    0.78735664467289
H          -2.29192369921124    0.87811147226815   -0.01462350897209
H          -1.24187124089232   -0.71343803438874    0.66526198184614
H          -0.96666295738042    1.27078871041121    0.72808999095239
N           0.76298601623513    0.59694804006066   -1.93791548300080
H           1.38973174910052   -0.00135621528849   -1.41150261142289
H           0.51798783832947    1.36997561848464   -1.32865631460565
H           1.27177336518584    0.97390311557249   -2.72709112567451
