    26
        -50.44900429  Gyration_radius:  2.46767634534 Dipole_moment: 4.418
 S          -1.52217451581984   -1.29486739251062    0.45359681159650
O          -0.95937800978294   -1.15536595202690   -0.86345681480651
O          -1.47383937039439   -2.60156607217139    1.01851154730858
O          -0.81645347692037   -0.27709458401643    1.38920519107404
O          -2.96570613873291   -0.75708268131244    0.45959957003741
H          -2.84626580832265    0.16023020475572    0.09097392230508
H           0.18679204035714   -0.20650374086292    1.16183000157059
O           1.62946486655561   -0.09988812415874    0.78173024549694
H           1.79886655389576   -1.05320852993290    1.00481509880902
O           0.22661799295017    2.41010331226792   -2.03365249328646
H           0.60867921883383    3.14738767545571   -2.51138533159780
H           0.28772485214043    2.61983610760197   -1.09014425967596
O          -2.14390545954048    1.51149493448777   -0.49362163307245
H          -1.76860477769784    1.33260890584386   -1.36277698882701
H          -1.39142765605759    1.77683149278454    0.06176170871032
O           0.27841831402803    2.37395978757715    0.77358795214840
H          -0.00120801094754    2.58676619971248    1.66575471676320
H           0.90353375626883    1.63581200409313    0.85630793626331
O           1.32624735165027   -0.12675119003485   -1.81331081831137
H           0.51859118018802   -0.65402659438338   -1.68372687442276
H           1.00893916702464    0.75343593438308   -2.07506238262702
H           1.64764640029510   -0.08540939958983   -0.21762319924898
N           1.45617731820318   -2.73326119019015    1.11477025844211
H           0.43885267147637   -2.79767508855627    1.13831181673821
H           1.81161976647360   -3.26109906099946    1.90286543081745
H           1.76079177422277   -3.20466693832596    0.27113856797647
