    26
        -50.45958871  Gyration_radius:  2.42001413353 Dipole_moment: 7.271
 S           1.48971700547877    0.62667671698190   -0.91860744739424
O           0.14443181337250    1.06826440271627   -1.28881073756200
O           2.22886848172810    1.60899240940836   -0.17756403421693
O           1.43771687574994   -0.69163458490337   -0.29880514658191
O           2.27082332105020    0.41267277156518   -2.28263708839857
H           2.70769552767260    1.25383992487856   -2.35112252295698
H           0.74464193003895   -0.73227108561213    1.16914751592358
O           0.26682523691754   -0.72740161133715    2.03270397111413
H           0.72774078595556   -1.33966988249715    2.60765183092627
O          -1.71406557469027   -0.64379529976967   -1.28423818402438
H          -1.19305082129701   -1.55411304067100   -1.32030308129900
H          -0.99471688765551    0.06955345659413   -1.40128092523595
O          -1.45823861354572    2.32776693270426    0.60490969637646
H          -0.74181004406352    2.44526277004939    1.26648941460375
H          -0.98855432142257    2.14018425296304   -0.22105258894047
O           0.76602465086733    2.05576221788822    2.06322965899483
H           0.62120125919219    1.13529782612996    2.32225594937710
H           1.39611129733439    2.02637617809741    1.32190689669907
O          -2.22520616749982   -0.10813631516995    1.07912318424642
H          -2.03486499692054   -0.47607274542036   -0.25846881711798
H          -1.44238070335743   -0.41252613404607    1.57201209664112
H          -2.09968963062900    0.88434495016246    0.99174257255924
N          -0.19532146960457   -2.69329523321712   -1.32349086210425
H           0.59856713867743   -2.14292490704016   -0.98309732555823
H           0.04128526246751   -3.06809656194663   -2.23247238887942
H          -0.35375136582331   -3.46505740847003   -0.68922165719113
