    26
        -50.44307970  Gyration_radius:  2.50791932674 Dipole_moment: 2.706
 S           1.98386202598475   -0.99471074725044   -0.53799519892949
O           1.19850571784158   -0.44545263317609   -1.59143934485713
O           3.13442743649575   -0.28363931819121   -0.09630492125527
O           1.10335306603675   -1.33466122722979    0.66984617147870
O           2.47205780020711   -2.42702831576741   -1.01388330615070
H           3.30675560771261   -2.58093904905016   -0.57752669875387
H           0.11388270609015   -1.53718787832909    0.39214727530671
O          -1.29746002495349   -1.78697185258658    0.13760732786440
H          -1.58777587977478   -2.52787235066221    0.67340892167045
O          -1.66341171124915    1.85101128163632   -0.94121604685512
H          -2.32949062073862    2.42257275960208   -1.32491138127092
H          -1.58993538741096    1.06693156654015   -1.54044027340536
O          -1.39947105062330   -0.39193284840241   -2.34300651003407
H          -1.64832490749987   -1.06450980738682   -1.69741059932362
H          -0.42902108933935   -0.39131666082492   -2.32709860529327
O           0.11462181017531    0.63185849314871    2.61003805328630
H           0.49859861605272    1.23778131327885    1.92569508527545
H           0.59929106732279   -0.18968413857000    2.49766071271579
O          -2.13526293132954    0.31176700362514    1.24565637629306
H          -1.39949912325145    0.48225378054156    1.88484606389937
H          -2.02988523181897    0.98916466391548    0.54722098554871
H          -1.70618973990174   -0.93420651545372    0.58242802918944
N           1.08628026699572    1.89551560692947    0.45250655563035
H           1.48928708181119    2.82369065749776    0.48345457056433
H           0.32097352944891    1.91727010307355   -0.21420990590372
H           1.79383098575097    1.26029614315907    0.10292666332023
