    26
        -50.46658022  Gyration_radius:  2.42914952221 Dipole_moment: 3.709
 S           0.90313136147356   -1.52214454235299   -0.98698530237481
O           2.04206360749952   -0.64742488585078   -1.17823440880148
O           1.03522961981883   -2.43831034010668    0.11813874925645
O          -0.35360404445977   -0.76731297536808   -0.96301105335846
O           0.77971288021613   -2.40825350289946   -2.30344465907104
H           1.51082626436054   -3.01448384828323   -2.23709816453616
H          -1.00070955059145   -1.29914231507129    0.56425848545418
O          -1.20715592873943   -1.52492704541195    1.48823320760256
H          -0.65007535062481   -2.28805063713395    1.66628924352255
O           2.15102458302884   -0.34593079308214    1.45375381725529
H           2.31535283522338   -0.22427351800601    0.50262031607917
H           1.91091469106700   -1.28049746617160    1.50010154421399
O          -2.62981800542610    0.73047866607398   -0.97295182750513
H          -2.77725051302331    0.96050869344951   -1.89224909348445
H          -1.95323292748066    0.03166078192865   -0.97857264585737
O           0.61434583930359    1.62138153697451   -1.62516198369359
H           0.24580850063338    0.71842773502935   -1.53198245232494
H           1.56369581257482    1.46418494973298   -1.63912134190061
O          -0.10751116392843    0.73871171888566    2.38344482036061
H           0.81044516219404    0.46514664642196    2.15879079979450
H          -0.58009876312154    1.66102572547084    1.30782478724537
H          -0.63913122217350   -0.07716719962073    2.24017855478183
N          -0.91903151706123    2.25299773834491    0.45430214139825
H          -1.75406838837515    1.78006033797948    0.04219259466188
H          -0.18564597362107    2.20552849235742   -0.29565077348450
H          -1.12521782874841    3.20780603670600    0.72433464478479
