    26
        -50.44307975  Gyration_radius:  2.50798088268 Dipole_moment: 2.703
 S           2.17819125525238   -0.59576158617673    0.34132415286337
O           1.62233983533649   -0.79237325501866   -0.95507644885298
O           3.05806599996449    0.50242139385838    0.55197323704714
O           1.07327357617342   -0.57126119215324    1.40368691090601
O           2.97688338442509   -1.91431324865655    0.71493392567202
H           3.68299017501997   -1.64056964443941    1.29575699783356
H           0.22990894542598   -1.11779226995588    1.10863604004272
O          -1.01558117058624   -1.80087213493964    0.78954988969022
H          -1.32436281156690   -2.27165400150870    1.56628298533933
O          -1.61306987856707    0.75316084210570   -1.97811772928453
H          -2.23363720406765    0.90537947820400   -2.69175777967866
H          -1.27377418042821   -0.16904732262304   -2.09532301002937
O          -0.67243888144243   -1.73200746036292   -2.03664028106730
H          -0.97986963820610   -2.08462358485154   -1.19270238233382
H           0.25025908186646   -1.48116538155110   -1.87031516394798
O          -0.65830021653420    1.73443156393583    1.94442331345427
H          -0.20221955110497    2.04635193997529    1.12116599595691
H          -0.04732708331817    1.10024509005335    2.32784782141227
O          -2.40630664232993    0.28582140618943    0.57649816271457
H          -1.64466587988661   -0.97255601156851    0.68752411940732
H          -1.89402646368297    0.90202272217156    1.15695400367433
H          -2.22271310551466    0.58328216848886   -0.33766551440664
N           0.64432745122322    2.10294396462566   -0.37119751457832
H           0.88619660336864    3.01594993304431   -0.73560134577024
H           0.08307277109595    1.63263701844252   -1.07438514633489
H           1.50278363803864    1.57934958266394   -0.24777523957012
