    26
        -50.46658019  Gyration_radius:  2.42916287914 Dipole_moment: 3.705
 S           1.38402577019858   -1.38454063254252    0.52365616107284
O           1.23198998477183   -1.95442800077307   -0.79959530366340
O           2.51656961722706   -0.50412350033737    0.66601111052402
O           0.12976039477345   -0.79205219625197    0.99864007436770
O           1.62227024331749   -2.60116496250709    1.52203650299725
H           2.50971909526879   -2.88433214998543    1.32535756089818
H           0.67445261979878    0.81977274399617    1.37111756157963
O           1.02611712981358    1.72688657206769    1.40041778853349
H           1.97941165490627    1.60192016805113    1.39486501111390
O          -1.45679689610833   -1.60251379129653   -0.97813908940102
H          -0.83558693843953   -2.01392039365571   -1.58725387063027
H          -0.90638275007886   -1.43812731070363   -0.18451137111581
O           1.85024460793939    0.41935894875030   -1.80600814449108
H           1.55125617931159   -0.50352583335921   -1.73287715073449
H           2.47990255287758    0.48702595693916   -1.07659388645212
O          -2.26207713068072    0.24243785287666    1.79491023565761
H          -2.80176871906640   -0.51605606630014    2.02553350791371
H          -1.35259604004857   -0.09278293214517    1.71364202725321
O           0.08166273562528    2.26993905149668   -1.03827158479459
H           0.40542261660721    2.29249760354780   -0.10902139415300
H           0.71425257848041    1.67020503484720   -1.49444900372955
H          -1.22631220145314    1.55578125620119   -0.93872923825928
N          -2.13433691579738    0.96348773596529   -0.80242018742839
H          -2.32461232762509    0.89178354021606    0.22198117442734
H          -1.93812551331076   -0.02137300474858   -1.10914299569734
H          -2.91846234829428    1.36784428965497   -1.30115549578470
