    26
        -50.44008919  Gyration_radius:  2.50185154578 Dipole_moment: 5.738
 S          -0.32826032424392   -0.75039267095414    2.12579977666462
O           0.12602793383567   -1.75173405215267    1.20050334294229
O           0.28397807587471   -0.73756469486068    3.40613666327086
O          -0.14730945631079    0.65104993338337    1.44193746733824
O          -1.86111130591620   -0.79469734316293    2.25073621707220
H          -2.18324684039618   -0.74647122903744    1.30953012494463
H           0.81493087240981    0.73476652662804    1.16214387962217
O           2.29901655761202    0.88760397185087    0.67802072107501
H           2.89229808938581    0.87821954363445    1.43153204764364
O          -2.63848860764956   -0.50599516130329   -0.20690860976780
H          -3.52761902268981   -0.14505300801330   -0.21587731031350
H          -2.07875020891650    0.11451228334199   -0.72252336189612
O          -1.26554876862092    1.25945904547859   -1.73783381822730
H          -1.68105819783110    1.85477360498076   -2.36365070869911
H          -0.59259739744071    1.79535999487737   -1.25572737345838
O           0.47677100654126    2.76464250284964   -0.37889894817509
H           0.06119147442241    2.74212241654182    0.48799841502145
H           1.30412708185697    2.27314136755458   -0.27901052563227
O           2.38351476434972   -1.46674360542954   -0.30290374239644
H           1.79128497175887   -1.84738049910829    0.36640247443796
H           1.80349432503158   -1.43738622771937   -1.09969205337079
H           2.41997863754698   -0.01242471717337    0.21609238846884
N           0.18914382245957   -1.42938699935536   -1.85812693983971
H          -0.09362932393160   -2.07022365201338   -2.58875230233441
H          -0.20511898737573   -0.52055321954803   -2.07488711544340
H          -0.24301917176212   -1.73964410129413   -0.99204070895574
