    26
        -50.44130708  Gyration_radius:  2.5486093965 Dipole_moment: 2.896
 S           1.40430345561178    1.58764283804247    0.52727418509951
O           2.07057535657933    1.53320643582734   -0.73417827323342
O          -0.02540010647822    1.62100557696452    0.50622108091783
O           1.90661974693586    0.48836062306485    1.45606327983859
O           1.88930611083841    2.87366206366093    1.28220096222599
H           2.82336787648981    2.94305241827884    1.10210690020059
H           1.52866895582346   -0.45338989178854    1.16508417937527
O           0.99682304857371   -1.70296668725994    0.73840809486266
H           1.35008013038290   -2.40722308474346    1.28667731922605
O          -2.18802312064667    0.13540502061759   -0.57396152529808
H          -1.91124138245423   -0.18093781432320   -1.47101391903284
H          -1.54851311281550    0.81716671804021   -0.33426216199155
O           1.50575604210514   -0.89375010254088   -1.94622501619009
H           1.36567807361163   -1.37044291061610   -1.11897240294624
H           1.78838769775401   -0.00291861187230   -1.69530561798770
O          -1.21905308803910    0.74983194983073    2.77799481626361
H          -0.76269633345066    1.14999169412238    2.01666057631385
H          -2.06453972707003    1.19806539868528    2.84727678262525
O          -1.43447633774965   -1.51688137881068    1.30903119000354
H          -1.41512093351130   -0.86014545002463    2.03348382400563
H          -1.83466183984910   -1.01460867333228    0.54618078160606
H          -0.03559140673972   -1.66517969543762    0.94715348792441
N          -1.19789114337077   -0.67786138208786   -2.94893096061294
H          -1.52096242533330   -1.56768077746427   -3.30707762375795
H          -0.20905680914774   -0.78106416453760   -2.71203699041780
H          -1.26233871800742   -0.00234011244872   -3.69985297899493
