    26
        -50.46215074  Gyration_radius:  2.51023386608 Dipole_moment: 3.334
 S           1.13819135078339   -1.81885028297521   -0.03452097600160
O          -0.31022857355044   -1.79589094395981    0.14778504023501
O           1.52731354090346   -1.47795723284763   -1.38596099826615
O           1.82176634882848   -1.03982961762788    0.98190334744854
O           1.58336067957786   -3.32446814766459    0.18067889100487
H           1.40357026284238   -3.50192416943547    1.09959743794659
H           1.75943309632816    0.41749886270009    0.13205848628675
O           1.69381390754936    1.26912898383488   -0.34430392327404
H           2.34607718789757    1.21275651898767   -1.04528539416364
O           0.92775612718357    0.95963893839625    2.61756107132256
H           1.16828864034584    1.67972234382043    2.02817411293129
H           1.35546428548859    0.17272554357060    2.24185928145366
O          -2.48406626822349    1.80528573603684    0.29339518847258
H          -2.70705316966369    2.54168966892063    0.86346774573474
H          -2.18043600443891    1.07574253851018    0.89606431297471
O          -1.49039222359583   -0.04783502309339    1.87004990906585
H          -0.71473444016710    0.35922948288655    2.30393118453437
H          -1.12909355511297   -0.76070855347764    1.31712214804517
O          -0.64863445140182    1.83772113687720   -1.59859193559680
H          -1.36106476015511    1.94736548706943   -0.92265128659151
H           0.19266214358408    1.78997031889933   -1.10087092771527
H          -0.81628294329598    0.42514953676450   -2.01099999517520
N          -0.80956578987546   -0.66625589447605   -2.14683399681275
H           0.19271963352722   -0.97322011819245   -2.20048774621788
H          -1.36980102246157   -0.97572813633976   -2.93291230857916
H          -1.08906401286370   -1.11095699720340   -1.25022866907353
