    26
        -50.44073507  Gyration_radius:  2.44956160553 Dipole_moment: 6.018
 S           0.05166910704805   -0.66096156115773    1.92066117965265
O           1.47720999607885   -0.59212861136507    1.82777142993759
O          -0.58692155051688    0.20282327260033    2.85480449552702
O          -0.56811312380164   -0.43164968024718    0.50108029075066
O          -0.37150173255414   -2.13034970436850    2.15388160338425
H           0.00568568623198   -2.59291733046210    1.35403999405029
H          -1.04649721351039    0.43148382428844    0.36979228576753
O           0.88109355506280   -0.94670841993939   -1.87750863515529
H           1.51763746748013   -1.13749641323953   -2.56951462622158
O          -1.44716235837791    0.29724155481198   -2.50495522363922
H          -2.04136432170859   -0.43867551123994   -2.65958715955856
H          -0.57929057496291   -0.10073255697081   -2.27699111897936
O           0.45746165371040   -3.02149750176619   -0.14458186948871
H           0.62947851661357   -2.22390211046747   -0.69342476706286
H          -0.28208319223405   -3.47499377269270   -0.55500146710473
O          -1.99196513723132    1.60866576635323   -0.25607259054906
H          -2.91673417390296    1.43730486153646   -0.06788863101383
H          -1.81829988337686    1.28750044516135   -1.17376582003681
O           2.10261286993210    0.75943697586696   -0.37814183999047
H           1.57195512269225    1.52343247239980   -0.06306537704021
H           2.16255997118534    0.20523792794389    0.41971130179158
H           1.32361732251389   -0.24883520464337   -1.29692885037559
N           0.53999696502507    2.44524762356269    1.09686860162443
H           0.92894625814518    3.30347969856296    1.46778708124620
H           0.35148075311294    1.82910287028903    1.88134804877162
H          -0.35147197260492    2.66989107514522    0.66968166374229
