    26
        -50.44130715  Gyration_radius:  2.54877182697 Dipole_moment: 2.898
 S          -1.53463458699111    1.08627031998541    1.11269056140036
O          -0.59930884785000    1.61028046108661    2.05536938095210
O          -1.18704903167283    1.18532615669562   -0.27113795962869
O          -1.92696125762833   -0.34233158739536    1.47168472133134
O          -2.89771051904559    1.83708416172654    1.30573972589509
H          -3.00360204758049    1.94402224397193    2.24759655826498
H          -1.14531309868162   -1.01553280767103    1.24839076441881
O          -0.06589754241338   -1.88849115207339    0.93164730852382
H          -0.28462365354985   -2.78278101735639    1.20324602359448
O           0.95170945329252    0.48313039596463   -1.99878089479832
H           0.27308145010025    0.94182277566860   -1.48864643418102
H           1.79510074280229    0.62017728061287   -1.49756420794535
O           1.70875031012135    0.07855486929162    1.98150566371435
H           1.00819010207896    0.73027112674712    2.12627365111152
H           1.26492395945229   -0.72803627873948    1.69225927867018
O          -2.41595270019639   -0.61188178595121   -1.88513650483352
H          -2.06868227110274    0.08311642200367   -1.29830701605834
H          -2.48117896304883   -0.21632196378137   -2.75681726547242
O          -0.05020226660821   -1.89568884487652   -1.57270190056187
H           0.45728672727987   -1.07495638139035   -1.82398651183867
H          -0.01126894435822   -1.91184045957078   -0.12049448708842
H          -0.97879705629990   -1.66418972479978   -1.77415770011387
N           3.11184530375922    0.85560744601984   -0.42468632259534
H           2.72032029529472    0.61232176400875    0.48749672075997
H           3.44863056398648    1.80832374434140   -0.36739766295360
H           3.91134387941666    0.25574284550392   -0.58408551107239
