    26
        -50.46044990  Gyration_radius:  2.45526650028 Dipole_moment: 6.758
 S           1.30906111611802    0.84918870717283    0.05985371052671
O           0.28237430256561    0.88683984767505   -0.98185585419888
O           1.12818228375062    1.85384072354361    1.06747100811359
O           1.18766579312814   -0.57901193372345    0.72917297342963
O           2.65202448111589    0.81026080745801   -0.52396896856238
H           2.68270326214180   -0.47755583291540   -1.08752564640828
H           0.24588040015026   -0.90290118605532    0.72710555128185
O          -1.18073242824159   -1.64032638110620    0.58650846148463
H          -1.30398370297168   -2.22169959965633    1.33873100376636
O          -2.05438890867441    2.13773463283185   -0.78517091269185
H          -2.39408378326148    2.11014261071531   -1.68081662194861
H          -1.13904153403004    1.79213137112117   -0.83183069807152
O           0.00918098966458   -1.50905018073102   -1.92429191071529
H           0.00544505994399   -0.53802684117921   -1.73672327225165
H          -0.52717453256061   -1.87442756656247   -1.20488282840291
O          -0.79358740344531    1.35085491451483    2.80772856976989
H          -0.04703119167255    1.52038106981945    2.19117407193833
H          -0.98921063733115    2.19998552210749    3.20780518178338
O          -2.66513984962180    0.36004288315434    1.15030590077863
H          -2.60819842368669    1.02698791908465    0.43651251903102
H          -1.82684063638761   -0.86866813570132    0.74191691629893
H          -2.09632041428119    0.71954025982509    1.86441931323160
N           2.58155347207080   -1.52753033729328   -1.46514077427854
H           1.53646540968445   -1.64433979051447   -1.70150551198865
H           2.83698989424391   -2.15201415151074   -0.70603944729584
H           3.16820699161463   -1.68237935207974   -2.27895274460512
