    26
        -50.44130711  Gyration_radius:  2.54876302724 Dipole_moment: 2.895
 S          -0.18086986836685    0.30372346291556    2.15616407686421
O          -0.61395699289544    1.65677091071211    2.01552941621001
O          -0.81836472537475   -0.67207940316787    1.32733771336316
O           1.33587638699079    0.20307529486774    2.04253695478547
O          -0.40716583754232   -0.13077341503023    3.64577099979616
H          -0.16885143207728    0.62573580066149    4.17546301835321
H           1.64768906482411    0.32150107764011    1.04107464843241
O           2.02425462860245    0.48617528078738   -0.32207041200897
H           2.98130701102290    0.47697650460417   -0.39532309654886
O          -1.35519803598488   -1.13028140995742   -1.42104919693951
H          -1.55614904447963   -0.25269823030571   -1.83436758853704
H          -1.40993451616780   -0.98345100436268   -0.46888468770666
O           0.08504609619467    2.56585462655098   -0.50705040406614
H          -0.25564990157021    2.41982701133531    0.38683468434683
H           0.84506941353929    1.97857950808014   -0.60041998674629
O           0.62671335697122   -2.92528708025276    0.90292059663623
H           0.00487634025161   -3.63903087651603    0.74677136671270
H           0.09208079420699   -2.15149220873922    1.15471868730035
O           1.21372204777829   -1.62391956470415   -1.40019847512198
H           1.68839991559852   -0.37862074209533   -0.82207831858643
H           1.20359572664484   -2.23988433740568   -0.64061321066124
H           0.24738420484383   -1.45841113819325   -1.58241023100976
N          -1.79547753705113    1.36590663901134   -2.34695150563931
H          -1.16888951052932    1.90049607803417   -1.74190929649925
H          -2.73221016342691    1.72246289640762   -2.20650265878439
H          -1.53329742214633    1.55884432921539   -3.30529309390761
