    26
        -50.44323963  Gyration_radius:  2.57965906956 Dipole_moment: 5.127
 S           1.18508045306741    1.68550501735230    1.87372678268484
O          -0.14146410499578    2.17466482987357    1.60325000442349
O           1.86660618839247    2.17973824953385    3.00879807653302
O           1.12580396682544    0.12362907205223    1.93334121790920
O           2.06246671321829    1.92014803837892    0.61205506864406
H           1.49768453662468    1.69040954207343   -0.17207155819702
H           0.20957956696745   -0.25240384396472    1.76998083867284
O          -1.12961285139944   -1.05884940587862    1.48934630520487
H          -1.29269060625923   -1.65675327914864    2.21997615199307
O          -2.06242859200762   -0.70204585320394   -2.24847581602421
H          -2.14437588943606    0.03109386599804   -1.62117296419789
H          -2.95235108217382   -0.98082545666430   -2.46851217980280
O           0.50264883393971    1.27370531740088   -1.37175268827668
H          -0.38211181665708    1.11837247979962   -0.96116784157087
H           0.38261372608289    1.97653942680790   -2.01323187335529
O          -1.83590391420783    1.05700225808197   -0.07082783336829
H          -1.43023612222246    1.70974796438955    0.53349968943583
H          -1.86276979660543    0.25749389840140    0.47989752068929
O          -0.55582946634599   -2.36967275608043   -0.61950347555621
H          -1.02597981706510   -1.88912273980814   -1.32424993902477
H           0.39671532218667   -2.11322750923251   -0.71071464187144
H          -0.91045176771103   -1.64353150068960    0.67833517513873
N           1.91542045579690   -1.30937753462116   -0.67086822363902
H           2.76931226254143   -1.74365918416644   -0.99595682471858
H           2.06585214053420   -0.99453125569758    0.28161192858179
H           1.74642166107212   -0.48404965111569   -1.23531288081867
