    26
        -50.46044992  Gyration_radius:  2.45557241384 Dipole_moment: 6.763
 S          -0.63737528972356   -0.80769473574129    1.17487213697857
O           0.54870829107260    0.04682129139360    1.23760073278994
O          -1.84158299613009   -0.13079063080757    1.56105535049411
O          -0.76160568595874   -1.25761890997620   -0.33654558112658
O          -0.40822913695633   -2.07972913235930    1.86429815700004
H           0.51638320038327   -2.70657532625216    1.01015646713390
H          -0.43367159426713   -0.54910045431591   -0.95486102565011
O           0.26950405704398    0.40624228443056   -2.04649802856929
H          -0.20268266560072    0.32705873918108   -2.87701879675687
O          -2.82337093410471    1.52167168091506   -0.24980106172356
H          -3.41764227247430    2.09412130349755    0.23856298234581
H          -2.48832872501843    0.87316215220975    0.40853595845467
O           0.52079468318957    2.70223548265187    1.35061610476462
H           1.43220912568078    2.92228736090380    1.54907735405863
H           0.45747969872883    1.72694097495681    1.41613445070440
O           2.24722433233606   -0.81321805424832   -0.51640847532833
H           1.83202076508144   -0.42904506062249   -1.30300782759630
H           1.76372134334316   -0.37770114326229    0.22846022475745
O          -0.54358018140322    2.64596641711960   -1.12755135417365
H           0.02968741183585    1.33142231759579   -1.69471214643751
H          -1.44808781370481    2.34636120161539   -0.89352730575939
H          -0.11612964891179    2.82318551036992   -0.26525774421860
N           1.22511785947573   -3.09743521387812    0.23554132976765
H           1.72581773607267   -2.22670146305214   -0.15556448733390
H           0.67071217480599   -3.53540777987416   -0.49401960063685
H           1.88290626520399   -3.75645881245143    0.63986222605579
