    26
        -50.44073497  Gyration_radius:  2.44937093533 Dipole_moment: 6.018
 S           1.91220635530059    0.57225797549557   -0.37888211343664
O           1.99857286736253   -0.55589291081169   -1.25381162045115
O           2.03162324078167    1.86505859882848   -0.96279380164556
O           0.57344324225137    0.49511419836811    0.42963222365422
O           2.92391752808285    0.39633607238120    0.77778503840030
H           2.62932972721113   -0.46217338623465    1.19313157431010
H          -0.11823145831799    1.16982388814682    0.19011469897842
O          -0.77451274819864   -1.95425246932349    0.88284567136165
H          -1.11328660161172   -2.85138861439947    0.91204298173305
O           1.77816909582817   -1.68755137871838    1.83007696934942
H           0.88996924401532   -1.74360571830583    1.41177794383519
H           1.62609842316053   -1.48749077438325    2.75622248512649
O          -1.45391744777433    2.11163105558788    0.22638497256151
H          -1.95357843114923    1.41695289040115    0.71947975211031
H          -1.33372007096267    2.85109441532334    0.82538373563446
O          -2.34378643266066    0.09627533060935    1.71674687149432
H          -1.80320069766685   -0.64295513198022    1.36345175938250
H          -2.10187520526280    0.18087326614066    2.64030818091237
O          -0.45968832771342   -1.50146486700767   -1.63644032795942
H           0.50929817492167   -1.41021154131150   -1.62775195889174
H          -0.67927469026821   -1.73969839099271   -0.09938673035468
H          -0.74976324956945   -0.62124655227208   -1.96154012217280
N          -0.54466756828993    1.10761647152585   -2.43912859052344
H          -0.71835148759945    1.33362511354688   -3.41078602466358
H           0.41633442225564    1.36074158220175   -2.23168861261099
H          -1.14110791406105    1.70053089715859   -1.87317494619504
