    26
        -50.47154175  Gyration_radius:  2.41280948591 Dipole_moment: 5.055
 S          -0.16685848008076    0.27660184739884    0.90788815196753
O          -1.47372243673941    1.04540949286250    1.26331437958799
O           0.87787245878557    1.28638837865608    0.81189616644839
O           0.08971423711154   -0.72535618218185    1.91789315061491
O          -0.41319989554290   -0.33915813236165   -0.40886698336886
O           1.82917951156007   -0.80501877418075   -1.83552195961611
H           2.32142080665472   -1.02090849718571   -1.01899213411427
H           0.90198164210623   -0.89395427356997   -1.55394567302409
O           2.51518901104196   -1.05006767178955    0.78083305379372
H           2.95178354444921   -0.27721150613901    1.14568051786799
H           1.65846169543023   -1.09074552767458    1.24203031413043
O          -2.15864816246864   -2.27393953465392    0.19065549519050
H          -1.63976136162406   -3.07548697454309    0.28156410144225
H          -1.53999445846231   -1.58570843757013   -0.12345745164565
O          -1.21141186416627    1.78353584821965   -1.77208503586160
H          -1.07112317758473    0.91509160018886   -1.33992913136217
H          -1.70867525448205    2.30156239170337   -1.13564959907085
O          -2.53984889587315   -0.93159745475752    2.49147318332605
H          -2.04295204049588    0.39194360250676    1.77446295288944
H          -2.68773594438332   -1.50782628998478    1.71263683969299
H          -1.63401494728414   -1.12958602188531    2.77165887717457
N           1.45613138799744    1.77437462347997   -1.65187613525720
H           1.32666954633446    1.70742022701457   -0.59208189028459
H           1.74027765350093    0.77982980931777   -1.92527048845204
H           0.49237071460542    1.96382024901163   -2.00261947875810
H           2.12689469961139    2.48058719811693   -1.93169122331348
