    26
        -50.44323963  Gyration_radius:  2.57964391733 Dipole_moment: 5.126
 S           1.54679875576160    0.65606883136214   -2.22101256973261
O           0.70650432941978    1.78237361139925   -1.90877589226757
O           2.63406319259855    0.85098345736918   -3.10248322053014
O           2.06151863185925    0.04453207238943   -0.87653360548755
O           0.64973477447952   -0.49050482474950   -2.76630678494994
H          -0.16760690523490   -0.50295162579419   -2.20202392526606
H           1.72226140642170    0.52017841434470   -0.06029826672753
O           1.26838061972829    1.08392674040146    1.35343473284024
H           2.04718111775305    1.27659223775827    1.87713286149172
O          -2.48033751025291    0.29020155128717    1.88837227088588
H          -2.17649081488824    0.95675437631983    1.25505272699725
H          -2.89111952889424    0.76247725536257    2.61382467960759
O          -1.44229499585403   -0.44861853877402   -1.21453913166564
H          -2.26996558098772   -0.33478495685282   -1.68558416938050
H          -1.32875331033003    0.35661289041354   -0.65399363742627
O          -1.01032480108254    1.86154283113735    0.08349910267381
H          -0.53714580645218    2.10260981631047   -0.73738580207314
H          -0.28318997536225    1.77913745322668    0.72202332110366
O          -0.00791439822827   -0.88346300256709    2.35100704204780
H           0.15429582274572   -1.55394647101083    1.63997841527633
H           0.80194427340069    0.29310477555506    1.80583227515677
H          -0.94176982780506   -0.62278359388449    2.25827250977563
N           0.45579491860087   -2.36674433536129    0.15581975711164
H          -0.35774297323372   -2.12669289593477   -0.39991177342122
H           0.58982687513444   -3.36799692391096    0.10153180720170
H           1.25635170066626   -1.91860912579640   -0.27693272315682
