    26
        -50.43794641  Gyration_radius:  2.52462236899 Dipole_moment: 5.571
 S           0.31663756526691   -1.84368082937262   -0.06420150110145
O          -0.23991820225095   -2.56088566682642    1.04121526478356
O          -0.56967048252283   -1.10747644726965   -0.89559342938953
O           1.49933689697367   -0.98777796399152    0.39392953881389
O           1.06874708155774   -2.90141151726893   -0.96947099418518
H           1.31332505699107   -3.61303190531003   -0.38246384634126
H           1.18705249867455   -0.15078117280265    0.96884601969476
O           0.78120954800808    0.95283232331695    1.74799285456209
H           1.55274172275019    1.46074720779387    2.00762017439866
O          -2.90769626903938    1.27567910414993    0.95740666564300
H          -3.55668013664290    1.64470712271985    1.55795991507581
H          -2.50757241073504    0.51030271992857    1.42193075608347
O          -0.26428136167682    1.38005902884316   -2.09518185397813
H           0.62368147253145    1.06155244959663   -2.33810297471239
H          -0.73387577928708    0.57582953019826   -1.83651201791386
O          -1.52909985560142   -0.55454479063294    2.38501125309312
H          -0.73177163346458   -0.02427860303949    2.50448561890681
H          -1.23854431083014   -1.38313620770711    1.97603727587147
O          -0.59027271803684    2.44796379534864    0.29647318638874
H           0.20378200731632    1.59910758965988    1.12847408178934
H          -0.43119856094741    2.17803723346873   -0.64318704517747
H          -1.50776455747556    2.14857601959485    0.48458980605790
N           1.93891168007004   -0.28461948434580   -2.44805486033285
H           2.44504979926315   -0.54985724431003   -3.28419805718181
H           1.27841063367106   -1.02258344794564   -2.23355224863678
H           2.59946029548896   -0.25132882371784   -1.68145359224126
