    26
        -50.44323957  Gyration_radius:  2.57978357005 Dipole_moment: 5.129
 S          -2.19061793197363   -1.09939797870794    1.32320171148703
O          -1.00837269576677   -1.80169999049154    1.74897107091312
O          -3.37607190866005   -1.25849888352742    2.07583924331319
O          -1.83960459276088    0.42047221024462    1.20802861394770
O          -2.47609506936450   -1.47053718934832   -0.15913011088933
H          -1.59766666279431   -1.48060061302102   -0.62262425302698
H          -0.88496215297534    0.63290043381429    1.43397272626596
O           0.58151326017378    1.18388067758908    1.69565270372416
H           0.53849715787815    1.89152425598807    2.34009413438369
O           1.42775726767963   -1.27917357204709    0.90352238401850
H           0.67822240886044   -1.73659575764512    1.33342707000994
H           1.38338714804628   -0.39461174040521    1.30199971849301
O          -0.12455583299297   -1.44997485878305   -1.28017107812174
H           0.51264859058594   -1.33078116400659   -0.53497553583194
H           0.10819572456087   -2.27818908396932   -1.70415902782774
O           2.91849760626612   -0.04553023407298   -1.13215896955721
H           2.57183488574386   -0.63971023282381   -0.45064715188290
H           3.85397245281670    0.06409767031868   -0.95626066806194
O           1.24524779210485    2.10116474255881   -0.58750642001209
H           0.39163559866864    1.95793145710244   -1.06941334016132
H           0.85484379648038    1.61469052182580    0.80833581678315
H           1.85923462290801    1.42993557531498   -0.93549508693587
N          -1.12967493366550    1.38314198141531   -1.62584328231457
H          -1.73296960096180    1.29124331296775   -0.81553714631193
H          -0.91150077711925    0.44527702954803   -1.94385443082852
H          -1.65339615413878    1.84904145013513   -2.35526869190514
