    26
        -50.44691231  Gyration_radius:  2.45173458439 Dipole_moment: 4.874
 S           1.26870529007045    1.28839599406794    0.07152954775136
O           1.09326412266480    0.08126501831027    0.82169105935369
O           2.20631244619728    1.24901253346464   -0.99846081822593
O          -0.14098534915769    1.71454883504021   -0.49384388607585
O           1.55649518040396    2.45670147997450    1.01564451262720
H           1.08063774839601    2.23850546945777    1.88507806067080
H          -0.50066085304734    1.03268763192776   -1.14020911914016
O          -1.73670062507198   -1.65097769395514    0.13402651686445
H          -2.32486867848836   -2.40733514662011    0.13995443234133
O           0.18582783153049    1.86545644854942    3.08623068847182
H          -0.26308705618569    2.63171424610698    3.45180159707601
H          -0.51417345746281    1.30164424332226    2.67336247351765
O          -1.34543915134376   -0.05354741094981   -1.92772930263559
H          -1.52028288062784   -0.70357184075525   -1.19712409273589
H          -2.19284074489960    0.33472025673198   -2.15680465869685
O          -1.70527524083966    0.75865951412227    1.59572032571262
H          -1.70581268192142   -0.17465810976062    1.33140228484255
H          -1.31557861291905    1.22908229837347    0.84587736596288
O           0.68628197025815   -2.50302673783111    0.16399007051002
H          -0.79685608398568   -2.02831665949653    0.19191233434765
H           0.99012636713707   -2.28050775004715   -0.74977459326861
H           1.02327065066312   -1.76140231913328    0.68858663369230
N           1.43578720403504   -1.34711748465379   -2.16351715032340
H           0.59700099008383   -1.03412339721153   -2.63866812379189
H           2.06511977378929   -1.71918923790749   -2.86406797473543
H           1.87373184071547   -0.51862015111739   -1.76660816407489
