    26
        -50.45151236  Gyration_radius:  2.4699478281 Dipole_moment: 3.925
 S           1.17559830566850    0.17939817294133   -1.12584878218022
O           0.61956234510870    1.43967031046833   -0.70484443478806
O           0.78124582970153   -0.25101688070849   -2.43027050265501
O           2.69582093280189    0.18636759380361   -1.03256521061099
O           0.78183165386832   -0.90222180339941   -0.08300032963976
H          -0.05248925079521   -0.65269998487236    0.48413761978467
H           2.93384326204093    0.18866154519283   -0.03468109389557
O          -1.29194049667502   -0.35168341699714    1.24024213307222
H          -1.93082806062313   -0.95742486057681    0.83628531071136
O          -0.79144578570991   -2.36021248790873   -2.10735640160064
H          -0.26136744608300   -2.83884805840134   -1.46635086718667
H          -0.22719368926012   -1.62064408769922   -2.40998365881859
O          -2.79325562781036   -1.01945444142643   -0.95988145078480
H          -2.09179235624151   -1.52614000572673   -1.43052582087103
H          -3.62331098234280   -1.29717361088359   -1.34909156422537
O           3.05397193345330    0.06992255386922    1.46466044413502
H           2.33193784815758    0.68246315885072    1.81671329391562
H           2.76572356367647   -0.82395919258273    1.66499024717819
O          -2.02329698938446    1.66361615654999   -0.24959787787479
H          -2.44348155096900    1.01357295752627   -0.82886475794676
H          -1.57694529566516    0.52982206268632    0.87139703369872
H          -1.12135135912975    1.79779686129905   -0.58852928920601
N           1.00327387897011    1.56898189475828    2.12203780112248
H           1.08660634268985    2.42873005450163    2.64848860917800
H           0.22063598778439    1.04501918070929    2.49501231250935
H           0.77864699671942    1.80745636791140    1.15742726686805
