    26
        -50.44323956  Gyration_radius:  2.57979521253 Dipole_moment: 5.128
 S          -2.77235761235836   -0.07783911891611    0.25777106847568
O          -2.25346662163245    0.83033618537353    1.24680191568253
O          -4.15787193198851   -0.05182295658397   -0.01926833946921
O          -1.96626783062067    0.13111450277929   -1.06624898958195
O          -2.36023696638863   -1.52361253340343    0.65328244208016
H          -1.42071604063513   -1.47308969006804    0.97157211077633
H          -1.24868224817026    0.82948152903165   -0.99644587617210
O          -0.03397866126384    1.84805447054454   -1.09473331620495
H          -0.18045225679795    2.43748550187529   -1.83569186062166
O           0.29637626599744    1.39359396632379    1.56881282359906
H           0.32831367814323    1.78678092496476    0.68135313151240
H          -0.66541407681693    1.34051642342583    1.73611481497791
O           2.90996256456033    0.51597078480542    1.03308854425229
H           2.10210246417915    0.87216616687027    1.43079748917745
H           3.60619059427269    1.15301265904623    1.19898976114387
O           0.10835435673873   -1.28181432382831    1.44982563191251
H           0.27756764973506   -0.30884153953769    1.46550389537748
H           0.25812333125036   -1.59601999419552    2.34353967249913
O           1.94382094522057    0.31000420263212   -1.56091276092582
H           0.76942812183297    1.26406590198134   -1.34197093283359
H           2.40946145786653    0.26877088361820   -0.70645339625599
H           1.45917347681440   -0.55011306913078   -1.64288734696391
N           0.34329528503730   -1.85098538854182   -1.51281343229919
H           0.39379542865149   -2.09115078048753   -0.52889835778506
H           0.43634710126644   -2.70311397230294   -2.05005304876692
H          -0.58286848458599   -1.47295074651633   -1.68107565400306
