    26
        -50.47315844  Gyration_radius:  2.38444943618 Dipole_moment: 0.897
 S           1.67319630960388    0.26734663791728    0.69890379045834
O           1.60738084460558   -0.33093377610790   -0.62422698573560
O           0.36094752288000    0.77314130586935    1.10807126546113
O           2.30670868570789   -0.55259567914845    1.68775601228943
O           2.58224871401406    1.57648444723456    0.55274857094524
H           3.41261663857432    1.27804258248374    0.90872902044440
H           0.54269442252351   -2.03322973225950    2.54674254207613
O          -0.21688917993629   -1.67135120542023    2.08294456185596
H           0.06072370977222   -0.76966057225391    1.84240796273842
O          -0.01512767105570    0.91313051662267   -2.33475559257359
H          -0.05832525787957    1.77473767952770   -1.87109909175713
H           0.70285703705738    0.43578538805364   -1.86998528575421
O          -0.05165802414806   -2.42931231503960   -0.52313128233041
H           0.70022048977101   -1.82168845457152   -0.66829633114858
H          -0.19601989228932   -2.40549880595248    0.44263724731979
O           0.24274797587339    2.87879376271477   -0.52541121061196
H           0.24100399355978    2.18735328494135    0.16272448288803
H           1.12947501060333    3.24477607695103   -0.51122254455076
O          -2.30991846809238    0.17458639466586    1.06917041025142
H          -1.46008898224770    0.64158451119240    1.13522983356353
H          -2.19799256119655   -0.31693177659105   -0.50855377135833
H          -2.22114821497396   -0.57604114783180    1.66564759577097
N          -1.83967815136171   -0.71555425778771   -1.41157681092010
H          -2.59286896244090   -0.99787229634852   -2.02771794358619
H          -1.20674712764348   -1.53272935695257   -1.15038063308613
H          -1.19635884108896    0.00763678821396   -1.87735582262544
