    26
        -50.47145503  Gyration_radius:  2.41028871263 Dipole_moment: 1.750
 S           0.40419963597953    0.75416946790827    1.44308579714390
O           1.40255453772538    1.78995373317129    1.42587881079885
O          -0.86759704037536    1.16497529701977    0.86485343112229
O           0.84977119917163   -0.52085170230313    0.90730117988708
O           0.10104678625312    0.45228390497958    2.98509385772650
H           0.40428383318305    1.24042013401815    3.42374297902748
H          -0.39391408470054   -1.56358189207457    1.21107109526992
O          -1.13778213764732   -2.20580139331480    1.25659542885094
H          -1.49257958724171   -2.12947707251189    2.14319553180894
O           1.43311075628932    1.35305841898421   -1.27855204850876
H           0.85603105339940    2.14764225977348   -1.31713106966964
H           1.67273845400296    1.29326925675046   -0.34232205212504
O          -0.21801382841921    3.32538416482328   -0.57027900997913
H          -0.62759641815331    2.61822718812806   -0.03537782252847
H           0.38796404179138    3.77201796517470    0.02622721144352
O           1.11469745581583   -2.73948171930356   -0.62104849802927
H           0.37351655599931   -3.17268676072804   -0.18350035213408
H           1.37929965589886   -2.03444387090997   -0.00812492652999
O          -2.12749293587628   -0.57187165986105   -0.69150325051496
H          -2.03555172073022   -1.33350217732797   -0.09035930562503
H          -1.82597408159311    0.18609927447845   -0.14770622883629
H          -0.89306687536795   -0.67970224040145   -1.65015800059915
N           0.06930330528348   -0.77050522082708   -2.11176307434911
H           0.64311872941175    0.07138458541003   -1.81441581763061
H           0.00236755971690   -0.82315774805808   -3.12193908715746
H           0.52556515000252   -1.62382221299979   -1.70286476897489
