    26
        -50.47315847  Gyration_radius:  2.38443791039 Dipole_moment: 0.897
 S          -1.69212238773218   -0.43254196603579   -0.55696664458131
O          -1.46596281964650    0.94937024979427   -0.16712969633724
O          -0.42446939437194   -1.15880557579407   -0.66157365423435
O          -2.68104532531096   -1.11293531072853    0.22449135276879
O          -2.25609839900623   -0.38771738956664   -2.05400490171916
H          -3.18744394607882   -0.52483507809216   -1.91612177360284
H          -1.49086921558518   -1.96097143755662    2.20198023075720
O          -0.59095876198294   -1.71834521007521    1.96894419221887
H          -0.61730944046265   -1.61494780101781    1.00112787990652
O          -0.34098303919308    0.97370271191935    2.26177209261492
H          -0.90062614152761    1.12630503514483    1.47498406539839
H          -0.40732431472648    0.01222305723215    2.42032054874939
O           0.70979962403578    2.06926923808426   -1.22461152634478
H           0.82915930088945    1.44451690396604   -1.96940821583935
H          -0.17478898315831    1.84131444179412   -0.87107521088474
O           0.47933042416407   -0.01764801151383   -2.89647727712345
H           0.18847997109250   -0.54582214808998   -2.12962327516991
H          -0.29366220724809    0.05313358359261   -3.46029148634843
O           2.00733986940312   -1.47183349832531    0.55518922647325
H           1.63756453279223   -1.88339110416366    1.34325296391295
H           1.27924116019248   -1.47810431182924   -0.08864891551071
H           2.14095801655415    0.16585429111429    0.76018928278414
N           1.91261693203041    1.17862535191146    0.91857765719819
H           1.08309845217653    1.19933793905845    1.58770989074346
H           1.54971949109910    1.59879202561353   -0.00105788636846
H           2.70635661154666    1.69545401357445    1.27845108053610
