    26
        -50.45151177  Gyration_radius:  2.46988590979 Dipole_moment: 3.922
 S          -0.30802677948036   -1.58386212030151   -0.25316997328898
O           0.13776304207412   -1.32815405209880    1.09252222524309
O           0.65638577999308   -2.21173457112156   -1.10070172868139
O          -1.59750954541241   -2.39436811450688   -0.26422497974846
O          -0.75448591685995   -0.23796501066016   -0.88586295879161
H          -0.33322363178233    0.59821308585136   -0.43199601767250
H          -2.33994589973977   -1.77668689706859    0.08146719400911
O           0.32627449094611    1.78950057130703    0.14708575194686
H           0.96555611091267    2.02135408808269   -0.54398403634415
O           2.61246258599705    1.19927453935300   -1.22960304790831
H           2.20753318981052    0.58656367793534   -1.88613585768113
H           3.44126352565807    1.48663611506550   -1.61438486973154
O          -3.28373841524884   -0.67314870518993    0.49287760593819
H          -3.32153577450769   -0.08622999836390   -0.26634035865089
H          -2.77746227105857   -0.17189862995357    1.20888011818925
O           1.36186146267392   -0.43036929057604   -2.93287350460921
H           0.48818362486188   -0.10651234185995   -3.16267272785053
H           1.20764689205012   -1.20634793513288   -2.35754290723994
O           2.09850498907855    0.46026972115341    1.53077859262726
H           0.91530052110736    1.40571128639617    0.85352122146698
H           1.56517140986093   -0.35332057662641    1.51329228754597
H           2.64585583449776    0.45031206585382    0.73469048285281
N          -1.70164115052199    0.56316741878346    2.18300167550666
H          -1.90539175062088    0.65734424382799    3.16934045744164
H          -1.36021230096173    1.45481045372551    1.84449877541264
H          -0.94659004324973   -0.11255902389537    2.07753659003446
