    26
        -50.43867614  Gyration_radius:  2.64723498269 Dipole_moment: 2.130
 S           2.31923103467930    0.37824316757624    0.52316724523780
O           2.92695982548013   -0.31739363480816   -0.56544577168294
O           1.32261471294034    1.35127060210604    0.20817324511519
O           1.81848482380877   -0.60409182319891    1.58271555059730
O           3.45414028536740    1.11605560333183    1.32297808838235
H           4.18298073430637    0.50215500847724    1.37114666427760
H           0.96966490478888   -1.11702255685901    1.26103196522795
O          -0.23006840715648   -1.82886535209829    0.85778036647746
H          -0.29905361643994   -2.62916346017095    1.38294403559863
O          -3.01869009586346    0.23267156968151   -0.82293174219232
H          -3.87480277479673   -0.10641492263890   -1.08674991429157
H          -2.34765445653430   -0.33934261662867   -1.27976403019369
O          -1.18350558774822   -1.39051712418639   -1.81685456739882
H          -0.79354960818408   -1.73551052402001   -1.00402822837459
H          -0.48575537517198   -0.80890150431940   -2.20315823061027
O          -0.65870657807354    1.97615174215395    1.91712475951779
H           0.10237408398296    1.78071803241370    1.33968018984386
H          -1.13409075071465    2.69396118531059    1.49350598523194
O          -2.07571650425054   -0.28965705233194    1.61501566759878
H          -1.60499752350482    0.52882101800737    1.88181509651036
H          -2.52838051805711   -0.05769135842696    0.76982132087105
H          -1.00525260983542   -1.20933076529140    1.18112680376966
N           0.82236003070269    0.28663320144499   -2.49730654898643
H           0.59011362121516    1.10978175078683   -1.95308206072885
H           1.08786097631162    0.59137956513322   -3.42577333876147
H           1.64343936273206   -0.11393974146144   -2.05293254103843
