    26
        -50.46725236  Gyration_radius:  2.43378961114 Dipole_moment: 7.786
 S          -0.75778480479695    0.62616829149574    1.59287033030471
O          -1.68060387049694   -0.11206616679406    0.72732608905352
O          -0.09923222634007   -0.16532302753793    2.57968638279716
O           0.17061060822365    1.40758711982547    0.76413798425514
O          -1.65684097278364    1.69127432299285    2.33925128202093
H          -2.22340864069574    2.00764903133729    1.64370419043442
H           1.52285733053054    0.55438745473584    0.36842084767125
O           2.29668245830419    0.02998601322480    0.05941924119285
H           3.07630330262380    0.54729922116134    0.26618104848814
O          -0.71590963154860    2.79125088073720   -1.25662499880379
H          -0.36407960618450    2.36466798754694   -0.43711360065227
H          -0.04817178230574    3.41765692620139   -1.53964382679888
O          -0.41510331149190   -2.50592950658429    0.05741129438851
H           0.30615530619953   -2.61099944103789    0.71629922642917
H          -0.98272418863084   -1.80701557734040    0.41461872424973
O           1.60985453209619   -2.11782131215630    1.76867938882360
H           2.10269701013306   -1.52874250599861    1.17965980385378
H           1.05570521654011   -1.52603866636160    2.30395273646419
O           0.86794473952406   -1.29615920241946   -1.88885193603336
H           0.44294947470089   -1.93686940367164   -1.25796909034859
H          -0.32003628759339   -0.36885495253805   -1.98628593137558
H           1.55503963868327   -0.86003411251151   -1.35917785324515
N          -1.22827152576684    0.21346456063774   -1.83831335351740
H          -1.04826493710317    1.23204825415833   -1.92291040470024
H          -1.50250615426247    0.04620111815283   -0.82984919825569
H          -1.96386167753971   -0.09378731727022   -2.46487839671188
