    26
        -50.44196378  Gyration_radius:  2.61348515218 Dipole_moment: 6.533
 S           1.56426119006949   -1.12984608627969    1.42966722156940
O           0.41172344929126   -0.88667808479599    2.24967995572854
O           2.71746914824945   -1.69791278354475    2.01907326296868
O           1.10034414874171   -2.01929315890390    0.22140701436434
O           1.96903369610121    0.18857457849455    0.71569736575523
H           1.14020718799103    0.58154611160534    0.30527007626591
H           0.10335747508481   -2.10345019546715    0.22894114540147
O          -1.48098232078871   -2.25376760433051    0.02856454590288
H          -1.75598495047921   -3.14099058443734    0.26502829001582
O          -2.36975310277592    1.66353966435024    0.66072491495208
H          -1.48703837261449    1.58981860589689    0.25447381942533
H          -3.00016795598198    1.72518405023434   -0.05864630627983
O          -0.31220996747849   -0.99240176130384   -2.13254381328753
H           0.51954458330430   -1.45467224039411   -1.99140713383182
H          -0.96043509365033   -1.46408728974734   -1.58607977230197
O           0.00121868707989    1.17496857248312   -0.61741246459690
H          -0.16248809609322    0.45155885092582   -1.26813736657611
H           0.60462781325846    1.81963546766653   -1.05997694978419
O          -2.25734120440362   -0.73457802431693    1.93069295575166
H          -1.37040626464608   -0.71976270579227    2.32971372906139
H          -2.40477049087617    0.17301010265911    1.59576027686538
H          -1.86219353911142   -1.64614806686664    0.75144791541386
N           2.07038814307023    2.62319021046270   -1.54069819704187
H           2.11177306141218    3.60735889446598   -1.30757840584169
H           2.39488485655113    2.51289585527321   -2.49327709167276
H           2.71493793870453    2.13230763168577   -0.93038498825168
