    26
        -50.46725230  Gyration_radius:  2.43387500707 Dipole_moment: 7.778
 S           0.71938989800863   -1.47099646542511   -0.90641850582610
O           1.15731389234461   -1.33670197627760    0.48500705502707
O          -0.42301250476924   -2.30316239324499   -1.09713833385269
O           0.56916095622279   -0.13650926552262   -1.50267989911863
O           1.94062952901596   -2.13550754322930   -1.65940309064669
H           2.68616616603924   -1.66938646955030   -1.29631222483385
H          -0.94445192100850    0.47462489244833   -1.28215020806505
O          -1.81906248386651    0.88325033847968   -1.08889433496698
H          -2.17106772523981    1.18248530685978   -1.92831948097275
O          -1.14294246388182   -1.01592813682458    2.02963386418607
H          -0.33873560816317   -1.32784740250954    1.58884854221848
H          -1.88198111892466   -1.32391308054622    1.46015021768916
O           2.40033197864149    1.68061330683624   -1.14233856809137
H           1.74272198987733    0.98364172118718   -1.38524061504294
H           2.28202927876018    2.39147487510277   -1.77394649196573
O          -2.79671484253852   -1.54306067594017   -0.01163661308088
H          -2.75236657810641   -0.65115604848322   -0.38495325591930
H          -2.09387785146093   -2.03666029337737   -0.46563773930237
O          -1.15420681710954    1.55658170473146    1.49959635797736
H           0.34911280879265    1.45730820900235    1.39184941542710
H          -1.52863111202882    1.51782891594265    0.60452300567783
H          -1.28888613404999    0.63992131610198    1.86101534969181
N           1.38920338262337    1.14981931593145    1.29519297077817
H           1.85518492708964    1.62055549595328    0.49628323619521
H           1.35176609457240    0.12103201007987    1.04930281969932
H           1.89292627916155    1.29169234226344    2.16366652711833
