    26
        -50.45860917  Gyration_radius:  2.40818964944 Dipole_moment: 7.095
 S           0.78197807971998    1.73784661859802    0.45557659396103
O          -0.67825856877140    1.65133479111888    0.25474586857482
O           1.47078917712559    2.31650842882452   -0.65869073836975
O           1.08281829938580    2.24126787459058    1.78032072187643
O           1.26133283662258    0.20760209396151    0.56008537257912
H           1.39129936629352   -0.20190779948785   -0.32231320074609
H           0.03825582604781    1.36055644530320    2.66156328970068
O          -0.97012615307933   -2.08810836964751   -0.67036892883372
H          -1.53213953927147   -2.76482230373462   -1.04970336499446
O           1.49635122180566   -1.43688710849042   -1.51534679134526
H           2.14580716111437   -2.10156657356718   -1.28050323822183
H           0.61217524183731   -1.80119639733239   -1.28344807178892
O           0.63676954793700    0.93696170653790   -2.83998890693718
H           1.19592042146601    0.16005996245308   -2.73392019381419
H           0.93848778968559    1.57672490259999   -2.16729495906788
O          -0.18735204178250   -1.64711824517286    1.94469184603255
H           0.63604125790121   -1.23907356226935    1.63692531274367
H          -0.63862192309001   -1.90455637395968    1.11994554902593
O          -1.65953571699426    0.15759486217297   -1.69947823216380
H          -0.96471682218333    0.39086497885250   -2.35348243825782
H          -1.30203975180836   -1.20901484488496   -1.05685567324763
H          -1.48298080637860    0.79123635878434   -0.97700498078939
N          -0.87876037476690    0.82935973822767    2.62601048193790
H          -1.52812334658081    1.08850198872382    3.36041452146881
H          -0.70873744482570   -0.20997192145463    2.56077062820520
H          -1.15663372743678    1.15780274931086    1.64734954251273
