    26
        -50.46725200  Gyration_radius:  2.43369815829 Dipole_moment: 7.801
 S           1.08846044020068   -0.62813763213192    1.38690270730896
O           1.68450980913135   -0.71976790371887    0.05200092868656
O           1.40183051206499    0.56521452471589    2.10213893973227
O          -0.35535029620587   -0.88638505793424    1.29633469608844
O           1.68640425880049   -1.85165945319477    2.19010717739643
H           1.63554151122943   -2.56005583129194    1.55718321540914
H          -1.21971922263854    0.48769908456878    1.01893597115679
O          -1.73880633961991    1.28797672925738    0.77512059352619
H          -2.45195362515708    1.35450398086892    1.41156466356465
O           1.40596123476139    1.78853444704027   -1.13512923882689
H           1.22023210086950    2.40541176223221   -0.39328351117629
H           1.71773743072091    0.97428116394313   -0.71307028471339
O          -1.24135023020645   -2.88540591449512   -0.11822097857490
H          -2.15363551900001   -3.06809433416677    0.11159840309955
H          -0.93350995314595   -2.18621877388258    0.50930240711053
O           0.52859189539465    2.94414853542238    1.11728155353583
H          -0.38424991741142    2.63884265393226    1.01535611431706
H           0.96162769852331    2.25720155878722    1.65052969497543
O          -1.03386743690423    1.17268037324702   -1.88708106031092
H          -0.56632472531019   -0.26214329906654   -1.94817417682816
H          -1.48592103096889    1.31256014989988   -1.03922878229526
H          -0.13078103706588    1.56642422772413   -1.75055976515078
N          -0.04626298129790   -1.21467540294877   -1.85870094077094
H           0.34176945893652   -1.50273442041133   -2.75007623461208
H          -0.65539053639302   -1.94700452247325   -1.44706395506660
H           0.72445652069090   -1.04319664593506   -1.15376813758585
