    26
        -50.45667193  Gyration_radius:  2.5599178912 Dipole_moment: 5.746
 S           1.53370334113297   -1.36630474445204    1.73635360649402
O           0.45729496561397   -0.39566900739550    1.94402129897339
O           1.91914926702736   -2.10291533104820    2.89307731891602
O           0.89006120449289   -2.46037852962067    0.72136188701286
O           2.61156490871639   -0.76297159572014    0.95748790755864
H           1.95375003694588   -0.06769452424893   -0.16453846944529
H           0.75976457774875   -3.18481017677287    1.32405333665274
O          -1.90638090100588   -0.74766885411996    0.70628822923474
H          -1.13766557256373   -0.68160488937450    1.30396522135413
O          -1.16656045157658    1.09000188602762   -2.62942790147975
H          -1.87935475972351    1.19249022084659   -3.26149478358296
H          -1.10946635544323    0.14404210507668   -2.42783441624017
O          -0.58975007614912   -1.34231070733641   -1.41625661999562
H          -1.20074527791784   -1.16560714313464   -0.62706209009712
H          -0.11739821283739   -2.14093124300422   -1.16268842681848
O           0.42045786124930    2.06549125903845    1.11162772447441
H           0.88144779078388    2.63933099970294    1.72401349287069
H           0.40567968209191    1.16682804408129    1.53249818051729
O          -2.08897504346869    1.82675632313901   -0.08522850431874
H          -1.79096714120136    1.72360174912336   -1.00386451482815
H          -2.17854646604305    0.17845642042421    0.52650432807022
H          -1.31850516119013    2.13843367863998    0.41002351895387
N           1.32571296351654    0.45075746308566   -0.88173294719516
H           0.54890579117000   -0.21274710529511   -1.15626146902239
H           1.84351174306508    0.75192566302149   -1.70054266717280
H           0.93331126554309    1.26349802932188   -0.37434325083029
