    26
        -50.45524950  Gyration_radius:  2.46766156263 Dipole_moment: 4.692
 S           0.94717033582990    1.29310043900025   -1.12539158595465
O           0.50107148120321    1.49447079859429   -2.47514045678918
O          -0.04511696274597    1.64034843550473   -0.11873798448411
O           1.52997263988440   -0.01924343841589   -0.86270780117834
O           2.16656978218507    2.30203967888885   -0.89885457637612
H           1.92602202508127    3.03088696221185   -1.46151444577045
H           0.56593634779290   -1.30807612478045   -0.89675974830968
O          -0.08628884723499   -2.05090561693665   -0.90240915343107
H           0.36441146271629   -2.80874317415192   -1.27725540081670
O          -3.20211532928707    0.05606437892494    0.13372605083976
H          -2.65038504639366    0.20247040166344   -0.66876006423944
H          -4.06060807830960   -0.22509646044049   -0.18519561166060
O          -1.68772094130228   -0.03824755266235   -2.06331943794035
H          -1.23388992752172   -0.86532733337144   -1.84959948698455
H          -0.99280382316314    0.60132304055715   -2.29094696863634
O          -0.06163431455365    0.50400907940268    2.10722588620763
H          -0.13111522609458    1.05752493269811    1.24102050095061
H           0.94759759569937    0.21065264472902    2.10770196638685
O          -1.44501963843041   -1.45049912066606    1.39528020488932
H          -0.65525954993700   -0.35114201649359    1.89792508899650
H          -2.21035411565670   -0.94393656174131    1.02372953700703
H          -0.97618998843962   -1.80044775711001    0.61516137276563
N           2.38795381351349   -0.09579743278023    1.76323838485454
H           2.78630052420546   -0.98288779126146    2.04220818578823
H           3.04014752164071    0.63827583565796    2.00623641900865
H           2.27534823933279   -0.09081624704300    0.74313910488236
