    26
        -50.45860928  Gyration_radius:  2.40819242969 Dipole_moment: 7.096
 S          -1.77775099805857    0.01438654691310   -0.82301481212325
O          -1.60706612735609   -0.66285082775616    0.47764698143458
O          -1.85815017301247   -0.89510596510905   -1.92625211532820
O          -2.77853314095281    1.05750308602705   -0.72408298367281
O          -0.42564855438783    0.86215236402384   -1.01179500281650
H           0.30639212732944    0.31707596508532   -1.37268895891149
H          -2.32527107406989    1.75104621044183    0.67167736524493
O           2.18594294872959   -0.13254360617215    0.97635568287402
H           2.96124773631009   -0.40356709003635    1.46944936822710
O           1.91940465923829   -0.18602992134945   -1.69761108695563
H           2.42599345866636    0.50656236617990   -2.12477145981655
H           2.16369482894662   -0.17762441318504   -0.74457457028898
O           0.29431378009459   -2.52931483151812   -1.69374059464430
H           0.95735655944655   -1.93798551000803   -2.06536682212157
H          -0.56552902553108   -2.09032318560140   -1.83783950383088
O           0.71502878448247    2.20626793932540    1.07357821530337
H           1.28827169679625    1.43762216102516    1.24914491102448
H           0.46274934331465    2.09599817919892    0.14446876285454
O           0.55848048780871   -2.11442631029855    0.94077781613596
H           0.60693849288350   -2.50106243045934    0.03913316792949
H           1.54262726722873   -0.91744143102811    1.02555613230337
H          -0.31541172298417   -1.67748148162791    0.93054267562294
N          -1.81968740394854    1.58638451810843    1.58964968157973
H          -0.84474938058970    1.98896468736632    1.55913439234787
H          -1.71967155130034    0.52927742933998    1.47010819322024
H          -2.35097302888916    1.87251557089976    2.40451456417888
