    26
        -50.46832479  Gyration_radius:  2.56128873951 Dipole_moment: 4.119
 S          -0.62587158772358   -0.56928316568212    0.82312355513595
O          -0.75945082336926   -0.65778751277370   -0.64120720514080
O          -1.03413440379624    0.74375200341229    1.29864174426817
O          -1.55629022492952   -1.63610604002428    1.44629142217801
O           0.72857977370636   -0.92172718639180    1.22746153113349
O           2.72994119726007   -2.06079777157534   -0.02347986480233
H           1.95908629284759   -1.80817527375126    0.53581276461939
H           3.50888211764717   -1.80707056721833    0.47539436849102
O           2.09503153318379    1.99949355963001   -1.22485232519987
H           1.50196567431153    2.69858264668536   -1.50508964184853
H           1.97467905224949    1.91995524486290   -0.24008756315271
O           1.50577652120573    1.60897128678180    1.30630968608377
H           1.51048697364622    0.64084234550082    1.41512283824465
H           0.56616215913393    1.80748614348205    1.43377523090238
O          -2.80911858681849    1.12300424170098   -0.60167774411625
H          -2.19162252978898    1.25399709882151    0.14664292027510
H          -2.32648327185271    0.50587849305684   -1.16608539617868
O          -3.93190512957333   -0.67811936910377    0.98103794725207
H          -3.70258951701784    0.01333109171651    0.31086483645479
H          -2.49410888095382   -1.35287348146954    1.26570208467496
H          -4.20109895764823   -0.20483953116828    1.77132911902016
N           1.52407829105510   -0.52598207920929   -1.83770478649243
H           2.15077306700593   -1.15044568798356   -1.27180886340703
H           1.81698809853759    0.47924984002114   -1.71350698282256
H           1.51257491268027   -0.79922657989617   -2.81403878529141
H           0.54766825878705   -0.62210975935541   -1.39797089028372
