    26
        -50.45840238  Gyration_radius:  2.43871573841 Dipole_moment: 7.424
 S           0.10878046323439    1.43746711007048   -1.42713823256162
O          -0.79452089753320    0.27753879055473   -1.32232178230732
O           0.50098710789919    1.74734621496958   -2.75894769661176
O          -0.47196757615201    2.55786585704243   -0.66433371702227
O           1.42558612952493    1.03252174376770   -0.65819289764860
H           1.25632798636142    0.85889998154611    0.29100342422904
H          -0.99791918315397    2.13127030719317    0.55851222593253
O           1.06088111658915    0.50093380775958    1.95634807933361
H           1.94657648843823    0.41983473872095    2.31253781253948
O           1.01935564534341   -1.02014102153081   -2.74432470379293
H           1.46202298416962   -0.24198059830931   -3.09656072087762
H           0.21648224204303   -0.65081941035631   -2.33574037371560
O           1.73623548075419   -2.37416840919407   -0.54739686650139
H           1.82866817525839   -3.26817763337979   -0.87969443233834
H           1.55988572648775   -1.81420878236523   -1.33764091561089
O          -2.27150844301083   -0.62706946233635    0.53924001924913
H          -1.71341858606554   -0.31967681452882   -0.23360871010166
H          -3.09695129109298   -0.93276862989936    0.16115516692182
O           0.10148728160037   -1.82912329646441    1.49691274184235
H          -0.77291786780314   -1.63537908119596    1.12937882587985
H           0.67759570954802   -2.09471453005649    0.74378164054325
H           0.71551320816265   -0.44547608655421    1.84368844640052
N          -1.32292656063485    1.69169693484068    1.54151768878696
H          -1.88487567823861    0.84318676084450    1.32637126765306
H          -1.83787627830439    2.36255184166570    2.09996584112844
H          -0.45150337334964    1.39258968765063    2.00548783857592
