    26
        -50.45860908  Gyration_radius:  2.4082746787 Dipole_moment: 7.096
 S           1.75405066966134    0.87383326176551   -0.04278440411818
O           1.68081146569037   -0.54640122003056    0.35467868011721
O           1.93016659878996    1.76113874139086    1.06736927808201
O           2.62329875910691    1.03502503033368   -1.19044664899945
O           0.30766868313974    1.18743710816433   -0.66908243442639
H          -0.35774572440930    1.39720758958575    0.02102938433479
H           2.10482915641737   -0.19989434237489   -2.11404595757956
O          -2.14273853321806   -1.06310194292354    0.17187748530178
H          -2.87437925295163   -1.62976091337768    0.41931502113933
O          -0.96383278533687   -0.60752931971836   -2.28743183458094
H          -1.43819197783427   -0.96324091959454   -1.51373651401654
H          -0.71034032985017    0.28563127439569   -2.00966791800259
O          -1.90207583868026    1.54679797902576    0.76533005448812
H          -2.49510595174972    2.09149424497316    0.24537386412913
H          -2.13411847138973    0.60844820734829    0.58115066078127
O          -0.00708292581892    1.10713607957952    2.84988966738496
H           0.79190644610705    1.37289999649358    2.35623863802009
H          -0.74073671457573    1.57020484872803    2.43191935417885
O          -0.28798085463514   -1.38796876178231    1.91313595883737
H          -1.40855119182622   -1.25386952957816    0.84785032970778
H           0.52661816023198   -1.25288078812149    1.39082769637476
H          -0.30012641072495   -0.59086482771815    2.48707001126844
N           1.63286651928815   -1.14888189996427   -2.08918887709278
H           0.61630919410138   -1.07048206773970   -2.36094474544499
H           1.65975015313539   -1.25570914886063   -1.02557800070446
H           2.13473115731706   -1.86666866990087   -2.60014873924289
