    26
        -50.47392086  Gyration_radius:  2.43996097831 Dipole_moment: 2.168
 S           0.36872685727735   -1.77982206743174    0.65582874762797
O           1.80892272249475   -1.85573005240157    0.57202898646707
O          -0.12113238149432   -0.75868539434097    1.56917035554521
O          -0.26881838246358   -1.65993953307064   -0.64840442893554
O          -0.10146976060549   -3.16344546671425    1.26341754172426
H           0.59763638097603   -3.72827897917422    0.95496188458691
H           0.22118571625413   -0.22381023948287   -1.48172384720340
O           0.51029645611128    0.64018921739592   -1.82813107750600
H           1.44418175950328    0.69881282557321   -1.58028437235690
O          -2.61206010166794   -0.77288006587414   -1.51086551686235
H          -2.36707373642035   -0.31557416150613   -2.31923450862683
H          -1.81641539093535   -1.28421280521612   -1.25276954233076
O           2.88250331815838    0.32613144217563   -0.40361306576936
H           3.83129205280935    0.21475277137670   -0.47915008774607
H           2.53045371504207   -0.52410794516865   -0.04828373658534
O           1.28754723679652    1.60303011669225    1.47624818567031
H           0.84455459424790    0.76911169740882    1.70295438969521
H           2.00435569021699    1.34966591186967    0.87340163155136
O          -0.53155305684100    2.52041194199099   -0.23404196921521
H          -1.56559100064526    1.57093765951525    0.30506509558688
H           0.16497662713115    2.42674487227791    0.45821147002772
H          -0.18358999345904    1.98879855439168   -0.98557833434902
N          -2.13182220837436    0.70910823113476    0.66503452915663
H          -1.42170769788794    0.08077573139969    1.11815452351526
H          -2.51783080709769    0.19508814655070   -0.16356752782272
H          -2.85756858913292    0.97292757064333    1.32117066414296
