    26
        -50.45840245  Gyration_radius:  2.43840295241 Dipole_moment: 7.421
 S           0.87147972419368    0.47119479291454   -1.76954966872877
O           0.50904148264225    1.34138616075510   -0.63657974263732
O           0.69656137973539    1.07743891084888   -3.04448866588623
O           2.20966219584090   -0.09558204466946   -1.51965119359632
O          -0.12723450044950   -0.74904648146691   -1.71632711289839
H          -0.03005524300755   -1.26645638241461   -0.89006515777102
H           2.35733172251446   -0.50384348896250   -0.19120778268297
O           0.03660976491659   -2.21757623379015    0.53456652803711
H          -0.50635246284911   -2.98741049696997    0.36006521479480
O          -2.98677387094144    0.12290415669884   -0.06072504280187
H          -3.79696947960056    0.60164131773406    0.11935982041308
H          -2.54938307572740    0.60867574348555   -0.79676456250460
O          -1.79743915854126    1.68071596347623   -1.88626257774282
H          -1.49492581090742    1.39910312697166   -2.75501507500329
H          -0.96979566477329    1.75766223050465   -1.37929869118361
O           0.93381073140875    1.21796979653323    1.86734133498451
H           0.73637438023793    1.32551199600549    0.89119793004622
H           1.13098515890816    2.09692842965357    2.19328311552446
O          -1.29720250466981   -0.51743780298088    1.90981064505033
H          -0.52127131656723   -1.60725798914800    1.12091841480709
H          -0.67349600082697    0.21599822689999    2.01156902439872
H          -1.95565984820339   -0.24307462486982    1.23091848976269
N           2.34140461103233   -0.85967246338355    0.87585031104938
H           1.65030388797332   -1.62520534325249    0.89547075314373
H           1.97594727308072   -0.07614086582342    1.45421822010382
H           3.25704661465378   -1.16842663449151    1.18136546138421
