    26
        -50.45646055  Gyration_radius:  2.53585358785 Dipole_moment: 2.916
 S           0.02782046675850   -1.95964735210302   -0.77252878363477
O          -0.98481726061440   -1.28831484703028    0.05197722579101
O           0.55945464808961   -3.13882560513145   -0.13686755504845
O          -0.73644380711432   -2.43367593608339   -2.08048095033029
O           1.04086783010611   -1.02529512115901   -1.21832439516570
H           0.63782996420700    0.46940252423180   -1.57889598056193
H          -1.22142338646526   -3.20143377776287   -1.79270865332927
O           0.40079264904897    1.41992318743627   -1.74020923473304
H           0.95609457098853    1.71336598110030   -2.46360112598520
O          -2.23127975415602    0.86313900866602   -1.01095184261268
H          -1.45707276416018    1.17824559176970   -1.49971975434587
H          -1.94705820546340    0.01662662984795   -0.62179749454180
O           0.29932357801003   -0.11702686874717    1.89896767140486
H          -0.33862928812773   -0.57151658772666    1.25709650306138
H           1.22695760140881   -0.67359821740252    1.73512189796940
O          -2.12766854838529    2.65898306554107    0.95037867959297
H          -2.58213779692870    3.44859206334611    0.65585233079601
H          -2.30736878781984    1.96461878039051    0.27000358251106
O           0.47676514229012    2.16377663573141    0.87523396284640
H           0.53049361414856    1.98320990392354   -0.08505723629846
H          -0.44401115546954    2.48693942893044    1.02070719057493
H           0.41668661228261    0.86662536496737    1.52543783453944
N           2.28896866329775   -1.53382506940098    1.31053117952691
H           2.83242480939486   -1.07650483999924    0.58882220136047
H           1.77037603853865   -2.29306906561721    0.85383822354345
H           2.91305458618384   -1.92071489763956    2.00717452308818
