    26
        -50.44646989  Gyration_radius:  2.48302546776 Dipole_moment: 5.866
 S           2.33389421683163   -0.13769879572606    0.43000733451716
O           1.82350068613523    0.90854181732911   -0.42133408765335
O           3.72149230059338   -0.40915766084843    0.39817067360898
O           1.87202644774552    0.13165728899063    1.87674909912967
O           1.54521632177301   -1.45077941417883    0.08270139744765
H           0.90185448601455   -1.31262898511301   -0.67059937347597
H           1.04062501606852    0.70747920787114    1.78577317629734
O          -0.16152629372638   -1.19124243368185   -1.85149204529347
H           0.03749925213033   -1.81681011578389   -2.54968290458939
O          -1.79181451648829   -0.33829293106382    0.24542602784240
H          -1.36579182232586   -0.73958968288572   -0.52648646143272
H          -1.56107451512464   -0.93959603408227    0.99588899061417
O          -1.85679716700943    2.09821722431661   -1.13505517191485
H          -2.05565064170277    1.29088688145548   -0.63538841106718
H          -2.69531784328837    2.47840719603904   -1.39829759303221
O          -0.18983854542148    1.53085050131594    1.39127395179856
H          -0.84978395919968    0.90467519480043    1.01857315367435
H           0.14967494925414    2.03004280006276    0.64029674440917
O           0.28869928442021    1.21997536952403   -2.60265287477558
H          -0.46640230731132    1.69592970616024   -2.21122186173653
H           1.01321296977873    1.31407001345878   -1.96022287880243
H          -0.00419994323721   -0.26607014932303   -2.23572018586044
N          -0.62436755922672   -1.81407301987500    2.17012229417674
H          -0.94377524595426   -2.70438630148400    2.53095170264790
H          -0.40812449734737   -1.21819635591185    2.96043030983853
H           0.24676894662130   -1.97221131136612    1.67178900363797
