    26
        -50.47392066  Gyration_radius:  2.43991416173 Dipole_moment: 2.173
 S           0.13079926682494   -1.80896217808160   -0.66564566064939
O           0.06286444783229   -2.59780333232812    0.54263381636071
O          -1.06522725794301   -1.02478051807709   -0.93251682973913
O           1.32424584789481   -0.97625207993481   -0.73163313313900
O           0.23905456191004   -2.84819622539963   -1.85419053440362
H           0.67907714982875   -3.56423269832620   -1.41093173219801
H           1.39605750916407    0.16596644993426    0.56729297114235
O           1.30093123923694    0.80785295896580    1.29462378627657
H           0.94088872301535    0.28902452589297    2.02818501020829
O           1.99867526099552    1.21788051859440   -2.05451011962257
H           2.49947200579242    1.70396626637149   -1.39464542707179
H           1.88989730097978    0.31682655399768   -1.68364537658991
O          -0.12794176896184   -1.12528984656399    2.70139171615742
H          -0.13054438180397   -1.68724627404303    3.47758925615517
H          -0.03898254159278   -1.72595403213748    1.92397151327139
O          -2.16429266229036    0.14247677606175    1.30398457797482
H          -1.60239107243126   -0.24749992932749    1.99224369843345
H          -1.95685648966680   -0.35812939585882    0.49815558993151
O          -0.80584643283118    2.35189925133983    0.71293818232545
H           0.05270415641361    1.98035851517591    1.01856529591024
H          -0.75693041464439    1.97217358111636   -0.74119442669828
H          -1.46989645126437    1.69905525904067    1.03838223044747
N          -0.64224217056706    1.47283128064070   -1.70581665977945
H          -0.86471590663392    0.46217893271528   -1.52295102784448
H           0.36648096069546    1.52249242362237   -1.98822302498030
H          -1.25528085994321    1.85936320657940   -2.41405370188614
