    26
        -50.46731559  Gyration_radius:  2.5811185961 Dipole_moment: 5.066
 S          -0.21825024278959    0.99071144432469   -0.68282826311783
O           0.09089699367064    1.44412810600669   -2.13298823823806
O          -1.52573172182895    1.47897212013953   -0.29311675982328
O          -0.18124334576608   -0.48485414429505   -0.66981401718419
O           0.85748570356379    1.53491504328117    0.13367653991764
O          -2.91223165444842   -0.48334979672218   -1.36700719159456
H          -2.25205390261064   -1.16176475278992   -1.19421310599543
H          -2.58920159382314    0.29640247959236   -0.86595640265127
O           1.92221667370158   -2.01496188134314   -0.43177957728309
H           1.56988536323499   -2.86557259170176   -0.16360173058109
H           1.13793828294489   -1.46006516572004   -0.66601329051074
O          -1.01460682309301   -0.25651012167539    1.83403021901990
H          -1.46384813547246    0.57915253162005    1.66677164467434
H          -0.71359987273513   -0.52845005043379    0.94672323852682
O           1.09053431398548   -0.35473021197742    3.45708545141442
H           0.25315260196871   -0.39790755712363    2.93513698662239
H           0.98108279154242    0.37741131180109    4.06614288669777
O          -1.98459131878167    0.71750721114966   -3.52374709124387
H          -2.52698578047087    1.49900792017656   -3.64993838394261
H          -0.65613454248108    1.15007938232719   -2.72590475667870
H          -2.44395469828251    0.17333978497820   -2.83455525689463
N           2.55130875495273   -0.05127643961073    1.24580158470239
H           1.90760650924151    0.66133147699578    0.75603136987998
H           3.50285428366256    0.29373777373342    1.29737254287709
H           2.13314231860093   -0.21266923161444    2.19617034455459
H           2.48432906155214   -0.92458465106730    0.66652126682271
