    26
        -50.45650677  Gyration_radius:  2.43167028493 Dipole_moment: 7.715
 S           1.92802159247911   -0.47094340373040    0.50983010788335
O           1.15959958673113    0.75205156626193    0.76520540920126
O           2.24784255023348   -1.20699413720553    1.69285355855920
O           0.96129329610248   -1.37516839063011   -0.38360122111535
O           3.03316568134228   -0.19793080813119   -0.41143697835487
H           2.36524434377735    0.02696332085020   -1.64119680226708
H           0.33119169290535   -1.73209700796480    0.28675674427337
O          -0.42408627166972   -1.92054629558501    1.75319745434292
H           0.45844622052423   -2.02162464353504    2.13793547008705
O          -2.12579787785867   -0.90953340771988   -0.41856411762394
H          -2.69642094744528   -0.27537594354944    0.02978301258546
H          -1.76103174038658   -1.48271115592623    0.26670184084433
O          -0.41579030588050    1.00740403231168   -1.24773319053155
H          -0.98501562421917    0.21266726553608   -1.12727795749897
H           0.16885700718735    1.01140755038735   -0.44022521293720
O          -2.48743594955023    1.87864734826899    0.42546874830564
H          -2.69787710070656    2.80279085979571    0.56289487522025
H          -1.80220815294931    1.83915251363560   -0.26457734677332
O          -0.96193195336365    0.58675254559247    2.39182841528539
H          -0.09989983865803    0.78954451515883    1.98121676451294
H          -1.62026195668812    1.04519462984058    1.84555623122562
H          -0.74049884337753   -1.05423228712906    2.11649912650260
N           1.70770080773844    0.15292979916198   -2.53659580162374
H           1.53784639749512   -0.77304512148683   -2.91871198814949
H           2.13058440163893    0.76585564307680   -3.22629121024731
H           0.78846297464238    0.54884101271901   -2.14951591162638
