    26
        -50.44892233  Gyration_radius:  2.61057013175 Dipole_moment: 7.144
 S           0.02727996877108   -1.31744309177534   -0.75371628448705
O          -0.94633034965519   -1.19992144262073    0.30319350967238
O          -0.02718008917449   -0.30167412071752   -1.75717034620631
O           1.44105298075070   -1.34662308221879   -0.11122913438305
O          -0.05862174953817   -2.70137804089954   -1.38813802481277
H          -0.21550595507708   -3.34083665826576   -0.58744541046874
H           1.67320536565189   -0.43474896017978    0.26344873437355
O           1.86199946973275    0.96339940995477    0.90296505275631
H           2.49999511414469    0.94959815708856    1.61911747063392
O          -1.79969668379224    2.93495128874775    0.70417155313189
H          -1.63182626323346    2.71674537455940   -0.24430276620755
H          -1.55823229868522    3.85582660159738    0.81151418835827
O          -1.08269902691498    2.32596948719568   -1.78379238464710
H          -0.13610137134191    2.54539408411512   -1.85462246971126
H          -1.10196929797206    1.36707493593624   -1.89278821881801
O           1.64358374443987    1.96729159569922   -1.74701800158563
H           1.28085553027932    1.11783773395838   -2.03120462965072
H           1.88018074733726    1.84257778125471   -0.81977566551730
O          -0.47967664088816    0.95373975382783    1.89469712652326
H          -1.01379940006527    1.70932834488897    1.55413811483315
H          -0.81860524541599    0.17164165707966    1.42631331197894
H           0.94282672825890    1.05382349010269    1.33789353233249
N          -0.52526860148499   -3.92689470333393    0.79574789248434
H          -0.91917735463238   -3.06029051819089    1.15227853087260
H           0.28008033381618   -4.18270772616702    1.35087978595299
H          -1.21636966497180   -4.66268136196001    0.85484451284144
