    26
        -50.44222308  Gyration_radius:  2.45063801821 Dipole_moment: 3.937
 S          -0.52114708047258   -1.39763110885170    0.19587915631848
O           0.82338669841179   -1.84878488580618    0.39882070454277
O          -1.13783059246417   -0.51292420660152    1.13576032724112
O          -0.82021544281040   -1.07664526343726   -1.26469416446664
O          -1.40465987857572   -2.72305098500930    0.33402949765713
H          -0.96234901195328   -3.44932647406304   -0.10235927170178
H          -1.03356569742392   -0.06327368217129   -1.50192307975739
O          -1.24719413707278    1.33481809319548   -1.73697766550556
H          -1.88272500177981    1.57455713375173   -1.02378178549374
O           3.24701062718742   -0.33819316879510   -0.17144658639861
H           2.92836738104888   -0.97454844811325    0.47674169145835
H           3.15259395275012   -0.78927749783130   -1.02631767525790
O          -2.72583157885844    1.52685744604206    0.47382225042117
H          -2.15367481571616    0.81299331613273    0.82290773878429
H          -3.61922035670630    1.17884784913813    0.47232164073743
O           1.92602536023327   -1.83380944757606   -2.10384904907027
H           1.51866373523214   -1.95172251075951   -1.23011994186881
H           1.27933324055047   -1.34994304910674   -2.62194760720478
O           0.76516861415699    0.72166367509226   -0.17915839727437
H           1.71448915417397    0.46990780890158   -0.19905398345578
H           0.63752220738105    1.21652496776923    0.66108912350747
H          -0.36830394883385    1.55141543963847   -1.37661279236933
N           0.12450688248576    1.95349469823528    2.17216230344415
H          -0.61391885362013    2.62960889749758    2.02234704886553
H           0.68850476916686    2.26467225718619    2.95225029400241
H          -0.31493622646024    1.07376917557297    2.42011022283659
