    26
        -50.45451328  Gyration_radius:  2.51607850118 Dipole_moment: 6.062
 S           1.24823482833961   -1.71069581871994    0.47077988701928
O           1.34794891391705   -3.06337334063344    0.92092049242631
O           0.14765530902076   -1.42000449808757   -0.43346308832042
O           1.37979881054629   -0.70931096110704    1.52367421922390
O           2.54913524098781   -1.45149149156889   -0.48076809777470
H           3.23890867804684   -1.96042154251887   -0.06329205166282
H           0.68708149224207    0.74005330774012    1.44239310502912
O           0.21566411154641    1.61140293801451    1.45077249314187
H           0.42760828699806    2.01655802160344    2.29292736350067
O          -2.25667050346841    1.10399062020628   -1.56302716895279
H          -3.15649142504545    1.42003021154918   -1.65192995701194
H          -2.23153457591212    0.62578450966221   -0.69631055724444
O          -2.17316882945186    0.22315921660050    0.92980864884654
H          -1.93320142703309   -0.67187684104971    1.21830582095978
H          -1.43792436056366    0.78276088368072    1.22287641237206
O          -0.95617210354108   -1.97855165483550    2.16745181339137
H          -0.11717950009303   -1.50231232761444    2.21790516779387
H          -0.72636468460968   -2.84029996242495    1.81088739861140
O          -0.06282255614677    2.50899510388787   -1.09600897798005
H          -0.97166983570334    2.17954554781661   -1.29415603211779
H           0.05596646059465    2.35417809516919   -0.13978400381125
H           0.62072583631273    1.32561538213649   -1.70620750085902
N           0.96376892448400    0.35591275427475   -2.07782819368585
H           0.62384352195640    0.20160970828859   -3.02160314422399
H           0.54344089128827   -0.39326295929579   -1.41794218621640
H           1.97341848527370    0.25200512722384   -2.02638185246098
