    26
        -50.46106731  Gyration_radius:  2.39324844524 Dipole_moment: 6.674
 S           1.03089562782023   -0.69154397583046    1.02325704673591
O          -0.10261782609936   -0.11636264236373    1.72973529703288
O           1.37242726815861   -2.02589880068744    1.48652192653238
O           0.80461692700031   -0.72025075025762   -0.42525603335059
O           2.26763614554252    0.23171911345172    1.27513294177476
H           2.00474553933259    1.13295040709984    0.97933014461699
H           0.71828285325951    0.49464789158701   -1.39154411950904
O           0.69276836147334    1.30781628877895   -1.97224086145430
H           1.23751083181545    1.10847307181559   -2.73479714788387
O          -2.04101241803431   -1.30450447301257    0.39284627891066
H          -1.47667623716717   -0.85462844661560    1.05811240468992
H          -1.15380730412379   -2.38111233445729    0.03272567630297
O           1.56563006257868    2.57655073026943    0.20445060808229
H           2.32746839440796    3.12716716307078    0.01429841327744
H           1.22333692010016    2.24420209802916   -0.65828569711810
O          -1.21411734421649    2.21665375535373    0.96799693140969
H          -0.42300961803816    2.73689255952532    0.79860783595405
H          -0.88782813338297    1.40112147074766    1.39148108697204
O          -2.06202704177998    0.81541640082596   -1.19690944550309
H          -1.25292695890519    0.94286419587971   -1.70598768422365
H          -2.15120422130332   -0.61314765412140   -0.31226997740334
H          -1.96442971875758    1.42424509469808   -0.43498888282795
N          -0.33647517642636   -3.13340874141129   -0.11285332232782
H           0.41471720490031   -2.82152161718653    0.58716421020935
H           0.04973290125676   -3.01097154792486   -1.04455248201656
H          -0.64363704941490   -4.08736924726207    0.04802484111506
