    26
        -50.47104600  Gyration_radius:  2.54670758498 Dipole_moment: 4.096
 S          -0.30068042611460   -0.57165790231700    0.89608415074877
O          -1.64481334766715   -0.31635478788550    0.42430286999910
O           0.63806081447288   -0.70809676998192   -0.23507109411146
O           0.15982484287610    0.47734715308552    1.80342496338959
O          -0.29696073920916   -1.92004318089692    1.65403281456073
O          -1.59118628835324    0.62169609284616   -3.29810980666208
H          -1.59756490088485   -0.28842606633158   -2.89712936599015
H          -2.50332464837626    0.91638138887882   -3.28964888780778
O          -1.51065154148138   -1.59112327301641   -1.88152159269836
H          -0.59490300325362   -1.86812118917369   -1.78555926825520
H          -1.73213951891456   -1.19060269285993   -1.01329255909725
O          -1.20445021493876    2.40798549728334    0.64527219388217
H          -2.02704658562235    1.90920938024636    0.58871739745622
H          -0.65573754318017    1.86349166350425    1.25116958576335
O           2.58273440587019    0.03983056757549    2.77563321675555
H           1.70353363018970    0.30637611679449    2.42859057137096
H           2.51143042144095    0.07370667054490    3.73112522629703
O           2.23733188069832   -2.21957620506347    1.37593766312119
H           2.08324628394972   -1.79659086648043    0.51960316780414
H           2.57915611366975   -1.50346267176759    1.95350469634468
H           0.66584691903959   -2.20383027982687    1.67236111538675
N           0.11455223675335    1.53411944213727   -1.48068855256340
H           0.43919870542363    0.62021279308135   -1.04585954137194
H          -0.41223388453708    2.03949349630045   -0.70976694099892
H           0.90348562255893    2.07876969972242   -1.81296107000476
H          -0.54670926442167    1.28926592361861   -2.27015096331487
