    26
        -50.45650661  Gyration_radius:  2.43157189775 Dipole_moment: 7.720
 S          -1.96184303690345   -0.14397716306163    0.57388003256227
O          -1.35498607190864   -0.32408904089169   -0.74930105515012
O          -2.51137198208451   -1.34406727353593    1.12316044186588
O          -0.75403264201538    0.31552586297912    1.51218218036713
O          -2.82694239257928    1.03760725149866    0.58377847436677
H          -1.89704105741072    2.10520393006778    0.50836134559755
H          -0.28457821423470   -0.53625092640907    1.68016737860992
O           0.10481451803174   -2.14224472278123    1.53324044842649
H          -0.83677154995347   -2.32975673763078    1.65706995267423
O           0.63991374192114    1.29316899648044   -0.81556480091876
H          -0.12113372124406    0.65458118592341   -0.89854310917398
H           1.21084110735072    0.89601720562242   -0.11811313080363
O           2.19304676645770   -0.60278078092847   -2.17453725532491
H           1.69728312687250    0.20288946440071   -1.94600394845331
H           2.31203593387638   -0.60204277654152   -3.12478690896077
O           2.21463804369950   -0.25361205138447    0.73864960048085
H           2.62008036749277   -0.68777625607859   -0.02027109401367
H           1.73238691823046   -0.93660452040066    1.22028453193643
O           0.32017227137017   -2.38594424975935   -1.08935770069795
H           0.27161912139355   -2.39229736905357    0.58880570647852
H          -0.42837775099336   -1.76048960421495   -1.12658984978494
H           1.06119358765627   -1.92450211311905   -1.51344023830965
N          -1.05175788828462    2.83571250303045    0.47219039198540
H          -0.73677275303732    2.97999491155128    1.42733972543912
H          -1.33232637334111    3.70969681186265    0.03902682507146
H          -0.28009008050961    2.33603745237373   -0.08162793422206
