    26
        -50.45209656  Gyration_radius:  2.5769700235 Dipole_moment: 6.613
 S          -0.02372890478062    0.46519205056511   -1.01990301469960
O          -0.41180246381384   -0.91275971051982   -0.83927057587614
O          -1.04473369907855    1.41544973533761   -0.71440449037937
O           1.23519097797477    0.72592881294350   -0.14100165248388
O           0.51499496453517    0.69374018828418   -2.42053888669143
H           1.41894372921483    0.19862442156133   -2.47128969815795
H           0.95500757115997    0.78442908885597    0.83259188810549
O           0.41068818314076    0.73690195322433    2.26611617853341
H           0.99844463554126    0.32472618552344    2.90221084527330
O          -3.26669591641639    1.01599503262534    1.08186667599946
H          -2.99937406208182    1.09451756241051    0.15956863038769
H          -2.84620544953495    1.78224387879321    1.51506725653371
O           2.69728171037272   -0.54620024411982   -2.26704773781375
H           3.02557417955155   -0.16460600885396   -1.44806272021199
H           2.38357713478527   -1.47662644273692   -2.04824772976514
O          -1.35173163550806    2.90182761957904    1.63306804637447
H          -0.69068131129912    2.40231721946707    2.12528201790594
H          -1.20034062405053    2.67980244069969    0.70383473428511
O          -1.47767949680068   -0.85910732809409    1.65507620533946
H          -2.26979035630545   -0.27442316526149    1.55491850936287
H          -1.20577803382618   -1.07386713471200    0.74739105959116
H          -0.36939826829900    0.09304459772295    2.13143751128284
N           1.57431615301814   -2.82579572189886   -1.56145710449846
H           0.73075570192773   -2.33817091429335   -1.25852758190409
H           1.89562695125039   -3.40331203174648   -0.79481616021319
H           1.31753830935449   -3.43987208533920   -2.32386219626904
