    26
        -50.46106737  Gyration_radius:  2.39330046733 Dipole_moment: 6.671
 S           1.31750116375168   -0.90287262138817   -0.19139675367420
O           0.80747590400747   -0.44005048921487   -1.47211572047613
O           2.75874488727292   -0.76296012891595   -0.06879678794139
O           0.66313424399254   -0.21845676629491    0.92823553998806
O           0.97349675687989   -2.42291583690869   -0.06264059526355
H          -0.00145746341211   -2.49646804524691   -0.17622430000167
H          -0.81855028492311   -0.35256921357525    1.37909741192539
O          -1.77331251320476   -0.49137135810840    1.64053169516103
H          -1.77571807462437   -0.60654767635065    2.59170982918059
O          -1.83462953070994   -0.26983290690797   -1.97181917096509
H          -2.13509382678823   -1.10153275993572   -1.59338025397412
H          -0.86142580589710   -0.32970408707112   -1.95886285216610
O           0.72338964929057    2.14377524849683   -0.94962198595996
H           0.77585309504996    1.25436865203151   -1.36149857257278
H           1.74391534601951    1.98944656529456    0.05593006548709
O          -1.69642683986188   -2.49830405625380   -0.11283179407391
H          -1.87257840583941   -1.77976420519825    0.53893055704857
H          -2.03941681481547   -3.31157507706309    0.26210301723947
O          -1.78501476346650    1.76983026148095   -0.18103771577124
H          -1.95817824710118    1.16998246058136   -0.93662052651789
H          -1.88637763586121    1.20670087071247    0.59530111388234
H          -0.20280667627541    2.17065023774529   -0.59089165894148
N           2.55725770520731    1.68123718490321    0.76202122638983
H           3.36182025296909    2.29939785954868    0.73223329776963
H           2.79509570399685    0.68377311669957    0.44541608424775
H           2.16330218433995    1.61576277093879    1.69622887997650
