    26
        -50.44646988  Gyration_radius:  2.48289282652 Dipole_moment: 5.854
 S           1.46539320119967    1.43501597925631   -1.19964717407171
O           0.36408622367275    0.80389905905564   -1.88405886343103
O           2.50819129730998    1.98864087920878   -1.97836774402930
O           0.90386596545375    2.49053169413426   -0.22530747649208
O           2.06917134682569    0.37680854112947   -0.20839478341694
H           1.62181275563294   -0.51384567762015   -0.29272131792897
H          -0.04466391619533    2.18748454337389   -0.02749848702795
O           0.96046218636374   -1.96283353230806   -0.33786192212432
H           1.61832247112383   -2.62845994382522   -0.54437024258074
O          -1.41302330110558    1.51500104484467    0.13169587993545
H          -1.57986716956850    1.21113415692972   -0.76725336469915
H          -1.27779539724807    0.70145771707583    0.66686741373783
O          -2.72705817892272   -1.19563920977440   -0.51002274908989
H          -3.51428242612851   -1.70227964267624   -0.30876249409214
H          -2.21794948792850   -1.12386181640365    0.31259741693071
O          -0.79457632860376   -0.76509607218149    1.47119726579757
H          -0.21365756606860   -0.21726918595205    2.05452324204574
H          -0.17976326214908   -1.31521031937883    0.96354593996281
O          -0.68020871588018   -1.63735473327798   -2.28290289745873
H          -0.36109458085590   -0.73119720604514   -2.43656837796025
H           0.32679261896070   -1.92430670280060   -1.12859569752556
H          -1.52897989705124   -1.53531568191271   -1.81485157173557
N           0.97826955432194    0.94223782484303    2.56113342476246
H           1.64409700520410    0.90711388389803    1.79452536692953
H           1.49053837366942    0.81875130374722    3.42553205288906
H           0.58191721798378    1.87459311668970    2.56556715068252
