    26
        -50.43679973  Gyration_radius:  2.67528000356 Dipole_moment: 1.537
 S          -2.15848910866093   -1.24194162354804   -1.16258702211115
O          -1.61899025130419   -1.34689009576642    0.16630904765870
O          -2.86391403200311   -2.35617411284407   -1.68330047169710
O          -3.15530517276464   -0.00664302993950   -1.12910317488198
O          -1.07514686452519   -0.79110757077985   -2.12328006430662
H          -0.58064684214389    0.05607625366120   -1.69999283932906
H          -3.84305675879204   -0.20756610052642   -1.75799745801761
O           0.06061696367000    1.16371260352389   -1.12131359489606
H           0.67600166287350    1.49195131789111   -1.79984349602977
O          -1.51568913807688    1.13740871317932    1.34305792193030
H          -1.31645699051062    1.62756132968144    0.54005333379797
H          -1.65876014398489    0.22359677309461    1.05291827212537
O           0.85344862013334   -2.34681237277191    0.51143693998392
H           0.83938441344977   -2.91911522738038    1.28017862670390
H          -0.06369705621548   -2.04241725639012    0.38087462930980
O           2.56745311467228    1.14126932684869   -2.18050257803673
H           2.84341859600658    0.40908549733992   -2.73383761673650
H           2.68044172355662    0.84717614578873   -1.26361169653631
O           1.90529889165839    0.14347878705577    0.38677490350831
H           0.69796851192377    0.76703355602539   -0.44214782574671
H           1.70058457980751    0.49088635670261    1.29555909330327
H           1.67727854727373   -0.80549501541928    0.41418942023223
N           1.00442851802908    1.04461340265383    2.73433247838114
H           1.30253772130779    1.96032365033358    3.04554736610011
H           1.00283825118291    0.43130494520051    3.53938102706408
H           0.03845225330062    1.12868371645671    2.40690476826700
