    26
        -50.46731565  Gyration_radius:  2.58089892515 Dipole_moment: 5.064
 S           0.92791767953114    0.65548780004208   -0.45265211236689
O           1.50191914851310    0.35661420611389    0.85162294811014
O           2.07187490168357    0.42281757824144   -1.47313753920654
O          -0.14685483569887   -0.30329239716332   -0.77609660101269
O           0.45390096538583    2.02038441744860   -0.56220055074915
O          -1.20661974462495    1.60190547064787   -2.56088040269509
H          -0.69549108755216    1.95421562659288   -1.80063123065860
H          -1.45041126937440    0.71255614195530   -2.28597477007681
O          -0.32412665959678   -2.79895913542165   -0.02621101546713
H          -1.24973419182441   -3.01917690751865   -0.14598371175442
H          -0.20391920022450   -1.90720426432260   -0.43629292104021
O          -1.52651792853380    0.96162891733314    1.09823551749126
H          -1.17511928174217    0.38866822355040    0.39106042722373
H          -1.06203107647758    1.79383393103916    0.95757887003569
O          -1.26922699572786   -0.35468524506641    3.39538627956260
H          -1.48795738529598    0.14139003708803    2.56981609700500
H          -1.05716783828250    0.31114156149535    4.05164102281019
O           1.11791261465005    1.23921047248701   -3.75206815196669
H           1.74628343925274    0.67772782344325   -2.38142797976188
H           0.17483859537068    1.37550408980668   -3.47973746402131
H           1.47741988090727    2.11453645380477   -3.91144582574320
N           0.68507275734106   -1.69573302035620    2.17174689014372
H          -0.07252071873090   -1.29624285190853    2.78057835948727
H           1.39528986607957   -2.18002326099164    2.70855486456754
H           0.26840671282254   -2.31247788750001    1.43098640572743
H           1.10686166214642   -0.85982778077378    1.63753258434871
