    26
        -50.45209648  Gyration_radius:  2.576721817 Dipole_moment: 6.619
 S           0.83670818347679    0.34044720396898    0.66342132369068
O          -0.44545934897657    0.00235251429153    1.23242563181981
O           1.68358750836764   -0.77852445752190    0.39975422631327
O           0.58134672406405    1.14301747042289   -0.64647746175693
O           1.55620059691016    1.36176055419090    1.52553842994260
H           1.03397163286660    2.24689696748127    1.43053703642262
H           0.27002437612888    0.50537670365213   -1.37192336814601
O          -0.29591173360083   -0.54605269926401   -2.33513991719943
H          -0.99078369676944   -0.22455507885514   -2.91286283475639
O           0.14313570072457    3.39486361243066    1.08705140308074
H           0.12428474760797    3.35639049424282    0.12668521434448
H          -0.75809475360216    3.08309845903609    1.40745706169921
O           2.11339730651639   -2.06408580083685   -2.04582199112003
H           1.38933309702379   -1.61342335188263   -2.49461633795260
H           2.27349188558892   -1.55192853002465   -1.24102494815505
O           0.82965278640763   -3.49042639085764   -0.08477167508797
H           1.24641323599567   -2.89169333047778    0.54462254113737
H           1.30430908431705   -3.32173733993362   -0.92013600594582
O          -1.29558706807780   -1.94423932402225   -0.45572685070864
H          -1.15132177695265   -1.33002272525872    0.28309321715407
H          -0.74257122373637   -1.17020115094674   -1.66268757645116
H          -0.64002649437523   -2.67243175915522   -0.31681218269832
N          -2.09570483192948    2.23849800163899    1.86460673873091
H          -2.32131482502905    2.33827280332883    2.84616550216196
H          -1.68640623480151    1.31304389620678    1.73312087915997
H          -2.96267485793363    2.27530321796651    1.34352193402256
