    26
        -50.44095362  Gyration_radius:  2.56204825158 Dipole_moment: 7.675
 S          -1.76002538018748    1.42873920598734   -0.87024161724108
O          -1.11158348299581    1.16645854786159    0.39042272183456
O          -2.04647599437040    2.77989355773483   -1.17823748492695
O          -0.87165176559727    0.78012689266053   -1.98716179009076
O          -3.03498828152301    0.57121851713382   -0.98283826339583
H          -2.72455220769145   -0.35157067797825   -0.77816353942631
H           0.09020194153444    0.82530681232553   -1.71792391846222
O           1.61824051209933    0.76946550482952   -1.27168809503089
H           2.15514558308520    1.30269493686982   -1.86044670500339
O           2.18799405257493    0.19446657966154    2.68995357573601
H           1.38292329500285   -0.34873323049955    2.47778343753805
H           2.94680915604716   -0.33408269486197    2.43955423829187
O           0.59663832532520   -1.80196061806047   -1.27675659138706
H           0.67805170637731   -1.95672334203235   -2.22005469857700
H           1.04507320434208   -0.95611149644151   -1.10929634166994
O          -2.02795283564308   -1.79053645851787   -0.61726158155633
H          -2.42740047892159   -2.41033274331428   -1.23112094423146
H          -1.06706395143637   -1.76194571146294   -0.82582671526274
O           1.41250262222049    2.04249887567663    0.91345892202604
H           1.76116564641030    1.48712955377323    1.64920168822041
H           1.59956689701273    1.27377073478249   -0.37853477506010
H           0.44612291075664    1.95594590116543    0.95761183467613
N           0.02357617446830   -1.13426652190717    1.82264204261461
H          -0.46377644928817   -0.35858796463137    1.37758396252910
H          -0.62100523464078   -1.54984921625974    2.48289239892557
H           0.21246405509287   -1.82301493449785    1.10444825897388
