    26
        -50.46862789  Gyration_radius:  2.47473104622 Dipole_moment: 4.055
 S           1.86237954808135   -1.08136169170405    0.63798075066913
O           1.58175382655673   -0.66879842388471   -0.74804018266584
O           1.54626463979590   -0.02959771918421    1.56505775709714
O           1.27272873880428   -2.36928344275610    0.93895893226255
O           3.43314549916114   -1.30789510349788    0.69788731078898
H           3.50009194582355   -2.21180136803259    0.40855549482629
H          -0.28358408260055   -2.00197788067132    1.11845617388311
O          -1.24612284615147   -1.77582058615666    1.12291277825538
H          -1.63703449391083   -2.29336657384829    1.82905083714629
O          -1.76426730402013    0.95815607354762   -1.84690870724587
H          -1.46286361157991    0.00206736760595   -1.80725562608885
H          -2.33108966337828    1.03274675037236   -2.61471600882685
O          -0.84302544180902   -1.45630786976531   -1.58616685562627
H          -1.20755743213568   -1.76933224793223   -0.74412616619575
H           0.10166526405087   -1.29152230697615   -1.39468499894969
O           0.16913671346148    2.25102246277085    1.54051780894839
H           0.73789158815791    1.51298429748863    1.82954055941096
H           0.49241272228265    2.11060581058621    0.07717902867498
O          -2.04770356970072    0.87726953850724    0.99308744451950
H          -1.77741961399907   -0.04809630119926    1.12149491580438
H          -0.73977822139761    1.86951252226201    1.53079267262308
H          -2.15414822349174    0.98938087221622    0.03880353573768
N           0.66796493680818    1.78417272903091   -0.95005250830623
H           1.25826151470104    2.43070648250590   -1.46016173940761
H          -0.25152597479377    1.65793558116246   -1.41445597352126
H           1.12242355130038    0.82860101754824   -0.88370723382910
