    26
        -50.47068283  Gyration_radius:  2.4768323447 Dipole_moment: 4.031
 S           1.21646417821414    0.81818921932503    0.36013383334347
O           1.37069457374378    0.93106030854223    1.79335424770902
O           1.24958678561551   -0.55819638641968   -0.10768091827378
O          -0.02550114315220    1.48208390823065   -0.07768228685500
O           2.39116381229287    1.55589191766591   -0.35928835717052
H           2.37349495473756    2.45291578826024    0.03195331796830
H          -0.16250153918161    0.89447589335453   -1.70306410303852
O          -0.23361329360891    0.36935409473311   -2.52111138684796
H           0.59869372111758   -0.10360068913883   -2.59373165183400
O          -0.03262164966682   -1.48946857941206    2.03392486600515
H           0.30682551955132   -0.91242006841488    2.72526976662277
H           0.56192635292177   -1.30727326879860    1.27878357235647
O           1.54685257118206    3.52413121913407    1.18233609792412
H           0.67843897540312    3.59935036032803    0.77593332222302
H           1.49851094770466    2.73894354918085    1.75531226761007
O           0.15531127803161   -2.88413582374705   -0.98954757960964
H           0.17887886777550   -3.40897342041143   -0.18708930216386
H           0.66688973706424   -2.07996691308294   -0.79710861111859
O          -2.00970864962412   -1.46272120098040   -1.68551994357926
H          -1.34768637000463   -2.17197772336698   -1.54405772853224
H          -2.07103414255273   -0.79060605753987   -0.34530029362571
H          -1.51882863792178   -0.78409688263212   -2.20028852820024
N          -1.92219165331846   -0.23674742986534    0.58732021578051
H          -1.28441547863586    0.56557049618592    0.34564502737001
H          -1.38629006651114   -0.83071099698879    1.26353263713775
H          -2.79933967119519    0.08892866588130    0.97797151873739
