    26
        -50.43960107  Gyration_radius:  2.61799825827 Dipole_moment: 8.827
 S           0.72213833096014    2.85484572813291   -0.65252200662637
O           1.65577648872552    2.14534678628680    0.17353759375835
O           1.12483561463074    4.06808654540096   -1.25534375132725
O           0.24336717121483    1.84529332636394   -1.76738823324430
O          -0.59046162067441    3.09334003523418    0.13661548497753
H          -0.86146124834464    2.22418465866854    0.53728746802026
H           0.67902106663925    0.97425630296303   -1.62205767320049
O          -1.42468470777779    0.81318861096163    1.05393121387002
H          -2.13002037031027    0.99260534558402    1.67793158661590
O          -1.64903748197518   -0.58604907933531   -1.22681324155566
H          -1.64767222164735   -0.10622881959998   -0.36893823228072
H          -1.87911452207301    0.07401426650983   -1.88509872714583
O           0.97702911823968   -0.70183037771188   -1.61123266456410
H           0.01392108711577   -0.84361248183459   -1.44296846869089
H           1.15500803718163   -0.98540944116893   -2.50956023903542
O           2.34973646724605   -0.37455176300550    0.86069123461462
H           2.08002524335302   -0.69813825355152   -0.00754281716774
H           2.30492219055575    0.59249314900879    0.78024927858905
O           0.10257568797618   -0.83375529884875    2.19597596048598
H           1.01383168561120   -0.66446448460297    1.85478470068004
H          -0.75956316220573    0.19562994051350    1.55733455886468
H          -0.18427347298480   -1.66299214949182    1.75239052657998
N          -0.74239025803491   -2.92273116388695    0.62515276859026
H          -1.28701622749903   -2.47820472135575   -0.10496347338847
H          -1.31697373042272   -3.63550746615588    1.05580229908330
H           0.05048083449481   -3.37980919508361    0.19274486347791
