    26
        -50.45423368  Gyration_radius:  2.44484135487 Dipole_moment: 1.964
 S           0.16178519228356   -1.05823731442882    0.24698594436854
O          -1.05852880196254   -1.55747997254000   -0.39677893476904
O          -0.19479658362641   -0.21014277943496    1.41746468966036
O           1.03454958888253   -2.16561211903822    0.68969442629841
O           0.90460816500970   -0.19825262014629   -0.71125565949697
O          -1.89691094847246   -0.43273442282135   -2.52266970250492
H          -2.54995271794443   -1.04292119405892   -2.86946073707103
H          -1.44513981495513   -0.91627149798531   -1.76522104084856
O           3.34358078866014    0.38793763743712   -0.01910980268309
H           2.42410228539800    0.21127485007872   -0.35463146122077
H           3.91584429948908   -0.17314999040533   -0.54466429993687
O          -2.68368852800539    0.01665156724348    0.99704665935904
H          -2.67689691973202   -0.84667533636331    0.55583736563870
H          -1.73463104804054    0.05293241544325    1.32564694918767
O          -0.06279761543372    2.15253150782630   -0.77388960136714
H           0.32868794640315    1.22567695867869   -0.69040489561221
H           0.32397001959018    2.52194343860334   -1.57041001761600
O          -2.48239206946686    1.50163894896651   -0.99435193117346
H          -2.35015519914461    0.77740248885745   -1.71344049174505
H          -2.65278229532131    0.93819016667657   -0.09029977117991
H          -1.52088038720084    1.88861355748532   -0.87649600430118
N           2.22633609503615   -0.59927502900115    2.19078465528290
H           2.87950382988321   -0.09734790297224    1.55220349652645
H           1.83888323007389   -1.47992193238079    1.59500345010335
H           2.61441311260065   -0.80196411286149    3.10382369803383
H           1.31328837600374   -0.09480731284500    2.21859302706748
