    26
        -50.45317058  Gyration_radius:  2.48044383152 Dipole_moment: 3.502
 S          -0.03545375775182    1.72532819967579    0.32933361370780
O          -0.78682992121518    0.86537815996346   -0.55895911862083
O          -0.66718043891702    2.00754596592265    1.57137703476253
O           1.35139372762584    1.07512185649916    0.56051763898796
O           0.32572967366188    3.02963271870785   -0.37983481240834
H           0.95592438694123    2.77650602160891   -1.13079215486016
H           1.37513103572795    0.07310609773595    0.34805602047044
O           1.49857291378198   -1.39236657015046    0.02491620107223
H           2.19406654992945   -1.78390950123892    0.55636830349899
O          -2.29585808586775   -1.35779631518176   -1.00763720589811
H          -2.10766797036153   -1.51046729417725   -1.93593076216320
H          -1.94025807630184   -0.47813494336355   -0.80090344144372
O           1.97920958566609    2.13821672398589   -2.10759528213911
H           2.76749456028947    1.94083568002723   -1.59608219750238
H           1.59917525883516    1.26639233681468   -2.39131682395532
O           0.79980315036193   -0.20411832395393   -2.40435600253361
H           0.06986406226543    0.14692340902893   -1.85929432247784
H           1.22342932936395   -0.86719736755566   -1.84382294465948
O          -0.66026010849706   -2.36495269422662    0.90053429519058
H           0.61838089547831   -1.82187054046450    0.35794270562435
H          -0.92076693648981   -1.76057668070858    1.64429251100597
H          -1.32924479957557   -2.19778288980596    0.20736677651805
N          -1.40291231830019   -0.53800692975095    2.72259332969786
H          -1.15996889942149    0.37378302824066    2.33660503807667
H          -1.03837493417674   -0.57255284218895    3.66689549638271
H          -2.41339884328053   -0.56903730929775    2.78972610649474
