    26
        -50.43893824  Gyration_radius:  2.70359993733 Dipole_moment: 2.910
 S           2.27602408216858   -1.08123164710678   -1.12658586789275
O           1.36305233074912   -2.08038683440782   -1.60215493805779
O           1.98293432480668    0.27222154047936   -1.44066662591896
O           2.51863509066825   -1.27041771192665    0.37951950696743
O           3.70009266017205   -1.42996110565615   -1.69080701258771
H           3.76099637159874   -2.38122152592374   -1.64747642401839
H           1.64355412645598   -1.16011320450906    0.91967912416677
O           0.39594392984250   -1.06864475510667    1.70182981345592
H           0.56528175527647   -1.43689553473035    2.57104285255602
O          -2.19572203099230    0.78015144510267   -1.32885394646626
H          -1.74283406204759   -0.07600139140092   -1.13814779719824
H          -2.79012962252247    0.61155767011977   -2.06081964580940
O          -2.88449040889074    0.77329192027848    1.32111647156411
H          -3.07049056084782   -0.16543719324657    1.38607765274173
H          -2.71969167408364    0.94478754531106    0.37390818789113
O          -1.09619243539315   -1.53566031845989   -0.60181620022870
H          -0.32753120307722   -1.80932490248554   -1.12858255343021
H          -0.75281469996255   -1.44186000876954    0.29846034474628
O          -0.32891317503577    1.29527187662062    2.07098738436811
H           0.12995579834677   -0.05855094947822    1.86681631591698
H          -0.04854333319579    1.76763719754280    1.22994564024675
H          -1.30166392085742    1.22090810434818    1.98489499127457
N           0.20464571408175    2.29019602475672   -0.31080769920545
H           0.44174422346324    3.25582256914001   -0.49782048631607
H          -0.65371905336456    2.07732091492701   -0.81039916517719
H           0.92987577261625    1.70654031456374   -0.71933991357754
