    26
        -50.47068279  Gyration_radius:  2.47679410961 Dipole_moment: 4.026
 S          -0.36096627632038   -1.31062333114686   -0.65758197263812
O          -1.69181088057215   -1.73607418862046   -0.28551102934780
O          -0.34451916659670   -0.02132601994763   -1.32970856778219
O           0.52122845226975   -1.28775108746563    0.52404153563623
O           0.26336512219345   -2.33636724357638   -1.65761924298303
H           0.17214106438874   -3.19381473228778   -1.19460368129126
H           1.88469054101791   -0.41173481668726   -0.09183801138588
O           2.50315391150423    0.23337367714297   -0.48093887633191
H           2.24441281045231    0.31116662033891   -1.40223614302079
O          -0.39003481456789   -3.99602100756293    0.28746513293282
H          -1.14550317936147   -3.38470763488924    0.23612541146593
H           0.20431087117674   -3.61532107972581    0.94080283012235
O          -2.32498565522863    0.96356417941448    0.15525598853475
H          -2.87102884425767    0.18228054811104    0.28784585279884
H          -1.70185601692937    0.68456558891266   -0.54531903247364
O           0.02637827370751    2.66640420829960   -1.48557356057893
H          -0.87994798505049    2.97603938051986   -1.43447752110807
H          -0.02708726846049    1.70063544294517   -1.58447439560256
O           1.57426505423669    2.46116561416154    0.69463707392941
H           0.54409524281275    1.64735348057503    1.42131409586985
H           2.14626545514429    1.74464617815033    0.33974609233504
H           1.08485233743490    2.78013985921594   -0.09284112679948
N          -0.18973904670381    0.92306182641585    1.78960719861090
H           0.13283004703129   -0.01568500528123    1.43811561616311
H          -1.11328416542406    1.09703323754022    1.32685569143241
H          -0.26122586392027    0.93799629544372    2.80091061150836
