    26
        -50.44328694  Gyration_radius:  2.53823138623 Dipole_moment: 6.265
 S           2.31131872095625   -1.04732011814973    0.16523391856050
O           2.14625005147396    0.01224596527947   -0.78950316152374
O           3.59203580361800   -1.23708830614146    0.73658185780295
O           1.23898404436478   -0.82386397268076    1.30109121848394
O           1.80563844328008   -2.37817425421954   -0.43089042048083
H           0.90738554984626   -2.22091886754916   -0.85154557993580
H           1.08004433290099    0.15472827696193    1.42956876256700
O          -0.50053680521598   -1.94430245138543   -1.51776083016919
H          -0.65721211690929   -2.58382707677231   -2.21458885672928
O          -1.44350333240642   -1.51317708723151    1.03296939634379
H          -0.53057300196852   -1.51650013300659    1.35405999570053
H          -1.36753316632963   -1.70763477538274    0.08547444411672
O           0.54976319062799    1.61342495690303    1.82205201736678
H          -0.42643027000516    1.48044233818790    1.76047514630097
H           0.75547338142719    1.78615909150293    2.74274578418610
O          -2.04366323955295    0.99515065987652    1.58408601966600
H          -2.68262778056330    0.98841191104948    2.29818190063353
H          -1.90422140220414    0.04482509948089    1.33253460508235
O           0.16101060082489    0.26257886976974   -2.57598550616209
H           1.03481693724145    0.26979543139277   -2.14490273926638
H          -0.31323472657398   -1.05037970083380   -1.98532053073412
H          -0.32654802848942    0.99063068124491   -2.11457803180323
N          -0.81834157387796    2.17957960122428   -0.96353786539866
H           0.04540173216442    2.28101117649150   -0.44164217939339
H          -1.52868353213141    1.87025997692778   -0.30946858751882
H          -1.08501382251688    3.09394270704836   -1.30533079770402
