    26
        -50.47104607  Gyration_radius:  2.54672804597 Dipole_moment: 4.091
 S           1.05819571676749   -0.12260002918292    0.29071652192102
O           1.31949321018077    0.66432477780757   -0.89543691522992
O           2.17672664322636    0.16045931096610    1.32081853285146
O          -0.21810162289830    0.27534978520859    0.91699127702145
O           1.04451207996795   -1.55376458714307   -0.00498131398909
O           0.65381414783631   -3.06835048938842    2.13010614615883
H           0.75474575549108   -2.58549935298137    1.28091462482884
H           1.38280416900219   -3.68972693593174    2.16941885078687
O           0.11157775710814   -1.28142407209492   -2.45147490506125
H           0.49307489554106   -1.61987360086604   -1.61204681661306
H           0.71605888498045   -0.57151050176529   -2.69492294674458
O          -1.84097413179608    2.56917018530825   -1.95047298207262
H          -1.47094134228111    2.81239989773644   -2.80067933162217
H          -1.16299680353680    2.83769351917592   -1.27409822939707
O           0.08201966645515    2.88408164406083   -0.18626039078533
H           0.67159382068444    2.17319044362440   -0.51844754219280
H          -0.21903513661656    2.56012786638750    0.66759962140375
O           0.74815363578616   -0.65482463088769    3.29161226453781
H           0.69293515024936   -1.61654025809620    3.10378880176021
H           1.79642555282488   -0.13266246189827    2.20245259835228
H           0.02296392571661   -0.26053899947867    2.78708354535569
N          -1.79199472903433    0.03567824395956   -1.16109979678987
H          -1.15435952420714   -0.52961390858913   -1.79443599880378
H          -1.91910806071227    1.01089735415779   -1.55297288380452
H          -2.68403067147556   -0.42688956683969   -1.02034165165275
H          -1.26355298927191    0.13044636674347   -0.24383106017576
