    26
        -50.43893780  Gyration_radius:  2.70299583979 Dipole_moment: 2.908
 S           2.66775383702786   -0.62485948893945   -0.32392726703630
O           2.27740478945533   -0.88014458807508   -1.68048395673645
O           2.35916472721698    0.65248930078052    0.21420381531402
O           2.16298728504613   -1.75632753083933    0.58632538749398
O           4.21922497393998   -0.84963671226751   -0.22420392597124
H           4.39987121992970   -1.60587249751655   -0.77732808508436
H           1.13037799792727   -1.81220615658848    0.58155816071431
O          -0.33817622471096   -1.94829839814084    0.53762173630151
H          -0.56694575402860   -2.80255996764855    0.90875162515995
O          -1.34241942409742    1.90751551722223   -1.33072949858133
H          -0.91610201281814    1.04516592849981   -1.55144882367888
H          -1.46386642020904    2.36692000385911   -2.16247261106544
O          -3.23636937586429    0.40148483184762   -0.04844126159963
H          -3.27644122305475   -0.30219090114387   -0.69906676657012
H          -2.65646465996914    1.08536253397981   -0.43523930467352
O          -0.40490107822893   -0.53145102072092   -1.85849163930984
H           0.55433259598193   -0.58532157723583   -1.99992793668583
H          -0.56974039231316   -1.09672004778036   -1.09004376980548
O          -1.50416143027908   -0.23878185004042    1.94064728453200
H          -2.28173912081224   -0.02483254741819    1.38497085749259
H          -0.80195965459673   -1.23242908721055    1.16247226256302
H          -0.92146984143335    0.57571782887477    1.86267371812797
N          -0.02374369345443    1.86843672092052    1.37815302096134
H          -0.48089945563960    2.21410221646531    0.53961988465384
H           0.88619742022571    1.51947316902369    1.08871720149982
H           0.12808494479008    2.65496432008125    1.99608988198277
