    26
        -50.47688206  Gyration_radius:  2.44049887313 Dipole_moment: 2.693
 S           0.03733555623143    1.11369534705655   -1.10413249425328
O          -1.39060010658859    0.91910752734119   -1.28511110556691
O           0.36872821747381    1.62355477718875    0.21520753608713
O           0.76679117429112   -0.13017489871520   -1.38871595957264
O           0.53306444570544    2.18181685846285   -2.12687666934209
H           0.26416079296584    1.80133923108091   -2.98553787288567
H           2.74152956032711   -0.13314193985178   -0.06589057599263
O           2.61469125259384    0.29491642760476    0.78467450600238
H           1.89263901705376    0.93328812476191    0.62879736735799
O          -2.38278377005335   -0.62100504954050    0.64392977443545
H          -2.21002508906813   -0.01120264760393   -0.10438936075991
H          -2.11350115044218   -0.12990050366260    1.43719001150586
O          -0.49893152447650    0.39830676414605   -3.77918827113240
H           0.10582750560864   -0.21497161277700   -3.34394701618326
H          -1.24763567424321    0.48426411544572   -3.17063061861211
O          -0.80372523483599    0.80388069605406    2.42053123679230
H          -0.38021892525686    1.16863828542243    1.60868537484886
H          -0.93696431583599    1.54987745756276    3.00732802827789
O           1.12040222471071   -1.19700444115116    2.43318175719340
H           1.83442840125728   -0.68864865956960    1.98645558758968
H           0.47064773596005   -0.52958357737922    2.71186670855316
H           0.39090225453328   -1.79968225355814    1.19781711744509
N          -0.15532885930548   -1.95918065549971    0.28590331257335
H           0.26884041721795   -1.33187704976873   -0.44576518649088
H          -1.14612035764645   -1.59536920566160    0.44064412603404
H          -0.14415354815203   -2.93094310740423   -0.00202730390600
