    26
        -50.46815424  Gyration_radius:  2.47594692633 Dipole_moment: 5.893
 S           0.61748134654148    0.15509028761931   -0.93914553221277
O           1.42713987965339    0.56911192332849   -2.18601146163455
O           1.12873068636641    0.88195628830531    0.21528879906089
O          -0.79135186730050    0.43718673523359   -1.18130873498840
O           0.82709883863421   -1.28933450196372   -0.77176177296720
O          -1.18639456593554   -2.85777592421735    0.01845570443189
H          -0.51661267456048   -2.30858194980674   -0.44158274546927
H          -1.74925720993890   -3.22134245509736   -0.66641225092312
O           0.03865186517801    0.17487678749445    2.50674735267389
H           0.49593869332326    0.65632794959945    1.78166209712656
H           0.59292659553584   -1.13508827089730    2.21354325062665
O          -1.09005496469572    3.02459967801675   -1.65550359136004
H          -1.08122789359308    2.06674777785952   -1.44171415458743
H          -1.57456235842770    3.11037429451342   -2.47809967708461
O           1.57365402746841    2.99366564248545   -1.39540006698238
H           1.58030441948489    1.55047819167602   -2.03769659454545
H           0.64036460434506    3.26607770936217   -1.52440155056176
H           1.60027948007626    2.60067530786053   -0.51022508816039
O          -2.05586584625534   -0.40622866248094    1.02873474928964
H          -1.73497748941906    0.02266591174667    0.21231754710350
H          -1.99788828468941   -1.35570806199999    0.84110979230114
H          -0.88397685945462    0.06711528905384    2.16241386474234
N           0.96839295486117   -2.06062073888726    1.71547259620219
H           1.10332224906805   -1.75815037139985    0.70464322399661
H           0.23931764373834   -2.77399639294994    1.70624688769455
H           1.82856672999530   -2.41012244445408    2.12262735622370
