    26
        -50.43509355  Gyration_radius:  2.51101631749 Dipole_moment: 1.525
 S          -1.18901153247919   -0.37375920291134   -1.29977526917331
O          -1.98099641128555    0.07761912746186   -0.20064400583793
O          -0.40892406742217    0.51434440258970   -2.09010839313126
O          -0.43900616645135   -1.69811783333312   -0.97481447862176
O          -2.23495321449151   -0.97323927308559   -2.34622850833807
H          -2.98317860069062   -1.34184155212159   -1.87875266754143
H          -0.28954843324124   -1.83175454427927    0.00866429731150
O           0.17074985736509   -1.86573062495623    1.54660770418690
H           0.99842591010563   -2.34321975041925    1.63559003702303
O           1.78027302715943   -0.89111858265368   -2.76047743674393
H           1.48044130044148   -1.74116455528771   -2.43051488112736
H           1.00121150077810   -0.30773472987527   -2.69268454289598
O          -1.89608507508638    0.04454705974495    2.56041096226261
H          -2.06862771135342    0.11916606159493    1.60922720650058
H          -1.37466400220807   -0.75771282563106    2.65354325569211
O           2.93875120759108    0.64262471949398   -0.88476824637267
H           2.98926360977405    1.50465679107728   -1.30169454840170
H           2.68809825662959    0.01929398269931   -1.60211321098357
O           0.56686537590043    0.35567579646330    0.33017457668613
H           0.29052541780011    1.17629457377395    0.81971853893913
H           1.46176008395132    0.52499495778001   -0.04572645000815
H           0.40653287353556   -0.92572836196656    1.31858734162745
N          -0.30382828084571    2.38093850804192    1.84802729678074
H          -0.90000826414953    2.98585282540841    1.29822817859862
H           0.20794656389531    2.95319395750909    2.50736973261840
H          -0.91201321520089    1.75191908293552    2.37215351090266
