    26
        -50.44095354  Gyration_radius:  2.56213908139 Dipole_moment: 7.674
 S          -0.32059838333089   -2.40603380455293   -0.06588039093553
O          -0.88982465981603   -1.22752819195622   -0.67062469255789
O          -0.13142758493988   -3.53165999166710   -0.90239997326318
O           1.03166950108364   -1.97348297455539    0.59865865808069
O          -1.14122438656324   -2.79492222852134    1.17867471584232
H          -1.19332126305235   -1.95339748714518    1.70677983510646
H           1.44848887525802   -1.23989736946121    0.06223747356594
O           2.08386647078824    0.00892600995807   -0.69541982080091
H           2.93098884477307   -0.23038638885993   -1.07539190468480
O           1.16796284172484    0.83928613052631    1.78004683564066
H           1.92079209271782    0.53375482414126    2.29019642767714
H           1.41547300176741    0.71891234033102    0.84793809955930
O          -0.62012427080834    2.60111430478453   -2.21633921311147
H           0.00228480321863    3.29048360895044   -1.98137593942667
H          -1.03113643624675    2.28970060679308   -1.36643263207012
O          -1.01752406937068   -0.57668087512252    2.51656801519832
H          -0.87211833212093   -0.76766308681974    3.44550436609811
H          -0.23909219421802   -0.06164095888665    2.20616842323019
O           0.42277827235803    0.16561678045568   -2.60699534201703
H           1.44524714137074    0.12538974221782   -1.48975150392822
H          -0.23998240751222   -0.39728477862783   -2.17432805861511
H           0.03009076107384    1.06945376649000   -2.62481249912485
N          -1.48650457880275    1.54592522154823    0.09405173704390
H          -0.89064520033262    1.73194261897707    0.89165277597148
H          -1.38130507421274    0.56008293810188   -0.13906883969776
H          -2.44481378478244    1.67998925264391    0.39034343717381
