    26
        -50.43509357  Gyration_radius:  2.51093143485 Dipole_moment: 1.523
 S          -0.05816397893321    1.54481524130675    0.92343838578535
O          -1.03461958508383    1.69956307668863   -0.10697571889079
O          -0.27248518473601    0.71023816369908    2.05459102345392
O           1.38192913617487    1.41215751591681    0.34852667156141
O           0.10231023857514    2.99788439315448    1.56483628573195
H          -0.04757836838597    3.66378755335970    0.89524021312187
H           1.39710093873581    1.06521241654496   -0.59318566138452
O           1.38845971547632    0.25187534937037   -1.97756941535420
H           2.19551503575002   -0.25944613266167   -2.06808496783600
O           2.14155942365228   -0.32141372072267    2.62502955649747
H           1.24253079207772    0.05710346805011    2.60769098417463
H           2.64810684365982    0.22002539930646    2.01543220265807
O           1.10185771731757   -2.52583470631173    1.49675189436426
H           0.47329047924295   -2.83576703186401    2.15125831988304
H           1.62814145840262   -1.82950474129512    1.94852996446509
O          -1.44906116103357    0.85705520356701   -2.70510215908023
H          -1.43218458741997    1.24041305054017   -1.81470858192012
H          -0.52416585902199    0.74857699892999   -2.94364375420853
O          -0.07102667450530   -0.73425462735115   -0.11529286025571
H          -0.98997722535082   -1.00765689928888   -0.38025118088005
H           0.30544188524253   -1.46117587018799    0.43304594488741
H           0.75515316635745   -0.30501458398109   -1.44840611016843
N          -2.48923042854647   -1.33724870299015   -1.09096337380354
H          -2.35884893798509   -0.68924861127337   -1.86773929799463
H          -3.20439726041528   -0.94675225630294   -0.49121030677435
H          -2.82965755918310   -2.21538996615091   -1.46123803791391
