    26
        -50.43509357  Gyration_radius:  2.51101883277 Dipole_moment: 1.525
 S           1.09141989784970   -0.55415134378842    1.32053277112556
O           1.74429892320720   -0.95615982253154    0.11588259335255
O           1.05058805668813    0.80162161403682    1.74724268980041
O          -0.26923665795263   -1.28303880003571    1.51915247054755
O           1.89558622995634   -1.28288580746795    2.49136478081477
H           2.23796433913669   -2.11801657437716    2.17579766583578
H          -0.67351131034718   -1.59865654484762    0.65641145062424
O          -1.40844893112747   -1.83125911081049   -0.75215431881538
H          -2.36059660712719   -1.78294635678268   -0.64224227913153
O          -1.34353582604812    1.08652078927781    2.93233969437228
H          -1.58785201916481    0.15829810750084    2.93053294575766
H          -0.41313871939870    1.10075628085621    2.63908464603171
O           1.06089299170219   -1.75483940912463   -2.43890029128952
H           0.20268822162976   -2.12904964062556   -2.22073456833501
H           1.44817192419165   -1.50808778717181   -1.58496735174678
O          -1.95397070348048    2.36456545662314    0.65046073073123
H          -1.90041415094729    1.95162209943505    1.54072007050802
H          -1.47554174012403    3.19235290391567    0.72378662582309
O          -0.36954952004719    0.48936225249356   -0.42550040668218
H          -0.95472944397614    1.22025075458667   -0.11857909606163
H          -1.08792557272217   -0.89730223996740   -0.87915173144235
H           0.16657540023434    0.83845321880083   -1.18714383640168
N           1.04545325786108    1.15659875793809   -2.59731536623751
H           1.96631111948063    1.47050145875829   -2.31955657247893
H           0.75987595118423    1.68878923470024   -3.40932723040248
H           1.12862487942480    0.17670047855437   -2.86773607651967
