    26
        -50.46995312  Gyration_radius:  2.48934024971 Dipole_moment: 2.963
 S          -0.11817674609172    0.36108222679399    0.71574975638434
O          -0.19066385259052    0.60035963441762   -0.73245500120728
O           1.19222284835251    0.73612074373372    1.23341153290734
O          -1.19799999856221    1.26422615565075    1.37101097815869
O          -0.45124658989135   -1.01066648904122    1.04547818803763
O          -1.17761837973961   -3.12654376940823   -0.52615087284428
H          -2.03053433812276   -2.73339953355169   -0.75501068770053
H          -0.93314622491923   -2.66664787765087    0.29481798049442
O           1.72261116167527    3.30456445994728    0.82383850239893
H           1.64166369980467    2.33715505485448    0.96676154511674
H           1.93178385151057    3.68204989230950    1.67995195904263
O           2.38868336521304   -1.49041003030131    0.42259144546408
H           2.11468205270444   -2.10789297079976    1.10528469421770
H           2.08339338140602   -0.61309122557366    0.74201545557780
O          -2.82143896800733   -0.88444217048596   -0.29241894498244
H          -3.26726302627269   -0.03720929304540   -0.26234791155241
H          -2.04908587544030   -0.80124374640720    0.28864419171938
O          -0.74277195768871    3.21701028650136   -0.21577514848187
H           0.14534413318831    3.49462921633737    0.09687025029728
H          -0.57182987294528    2.51704222197024   -0.86254260249274
H          -1.14488005891896    2.13701934699299    0.87043881535421
N           0.70644297501200   -1.65279725419786   -1.64217988393508
H           1.50001408739622   -1.72275750178807   -0.95297522357591
H          -0.03812573312992   -2.35826115400962   -1.36455405409137
H           0.29305130010640   -0.69095603421949   -1.44777878097710
H           1.01488877583586   -1.75494019889401   -2.60267619334455
