    26
        -50.46329445  Gyration_radius:  2.58224020315 Dipole_moment: 2.496
 S           2.16391063120873    0.57921411280918    0.01185209853785
O           2.97612382590000   -0.27110389215570   -0.82837918836389
O           1.58214512965617    1.72102200995025   -0.64062882580166
O           1.12188549508427   -0.20414420060537    0.70960823793361
O           3.11829992838631    1.11793132998414    1.16114235186239
H           3.79127608882392    0.44686929222497    1.22980726064965
H          -0.00003659294998    1.13395023534280    0.80804420445192
O          -0.74351982329773    1.76186540654927    0.87568669676904
H          -0.41898889665788    2.54842039452348    0.43031882199796
O          -0.79159560142749   -0.58467245698507    2.63708712297150
H          -1.04928176749022    0.34320418053924    2.62317446064815
H           0.01615266782667   -0.62315289988021    2.10132470714582
O          -2.65798888448326   -1.71732095459188    1.08237157107418
H          -1.95890960228719   -1.39282692595513    1.69673887067529
H          -3.38065675345344   -2.01648759075417    1.63472420885741
O           1.44287459658696    0.21904348572690   -2.92046428276992
H           2.19302022542110   -0.08823342546473   -2.37206582632712
H           1.31951922672063    1.12907840829942   -2.62055243549075
O          -2.44051954549259    0.31157499360066   -0.67012954808741
H          -2.75444359354331   -0.38102968454434   -0.05449111885407
H          -1.97651295075952    0.96716175716738   -0.10818079533776
H          -1.23882047006171   -0.47984225512824   -1.22788538773880
N          -0.31651447941360   -1.02397384212764   -1.37356678995268
H           0.24679705452506   -0.88436175951584   -0.50151773539787
H           0.25873066838253   -0.60308877573995   -2.15477889918316
H          -0.50294656724110   -2.00909693292883   -1.52923979029035
