    26
        -50.44807937  Gyration_radius:  2.45661449513 Dipole_moment: 5.725
 S           1.85098754300679   -0.32752482344857   -0.23480600784218
O           0.94209109392028    0.59139876712361   -0.86008146240975
O           2.75066702356472   -1.03635271847322   -1.07213904099197
O           2.65601886035513    0.45162759199308    0.84183440544322
O           1.05083377067403   -1.35899933999134    0.59799800813888
H           0.26312479525585   -0.93172275653328    1.06526402190812
H           2.02109402177124    1.05139092620602    1.31052656801347
O          -0.88073343412026   -0.26836213280485    1.86090293019180
H          -1.33997814111432   -0.90974340459435    2.40530140470355
O          -0.77334313236731    2.59778110809669   -0.17036247172515
H          -0.14353066129652    1.98624620126199   -0.58575712628868
H          -0.35754761719099    2.85674875699110    0.65661872642469
O           0.74431514606130   -2.76313400098216   -1.86265805320692
H           1.53125994346769   -2.20381786615838   -1.80416062698818
H           0.79088540113584   -3.34895831928415   -1.10454916647062
O           0.81723735025771    1.77447825038865    2.17370013868651
H           1.08098997133459    1.88539368809973    3.08960596953432
H           0.11042515095976    1.09426019295031    2.15589529866105
O          -2.46094641079687    0.50122762279818    0.08965563458487
H          -2.08704037849504    1.39373650872197   -0.06271597478373
H          -2.19018391803825   -0.02298451828283   -0.71941418437412
H          -1.57816325586525    0.04018910192954    1.12603077546901
N          -1.39216189793008   -0.70352754791650   -2.01954667855748
H          -1.02874895649571   -1.65125016058282   -1.96150970935703
H          -0.57251001550923   -0.10309903494186   -1.97770098164349
H          -1.80504224255123   -0.59500209259037   -2.93793237713626
