    26
        -50.44980538  Gyration_radius:  2.48737575926 Dipole_moment: 1.698
 S           1.81547175898884   -0.24200450281488   -0.30600379115715
O           1.26055152244173    1.05972359309876   -0.59655627158792
O           2.54513896088969   -0.87137961521827   -1.34821832370450
O           2.70255851167610   -0.15005447386243    0.95068831492675
O           0.66287258616195   -1.17372194423469    0.14061961378105
H          -0.25122782153180   -0.69660264171611    0.28222539493142
H           2.14333294121505    0.27579168952559    1.66803412019145
O          -1.59959994361340   -0.13355170256091    0.51846041051410
H          -2.03336298356633   -0.29711504716221   -0.35732411641501
O          -0.56664934563569   -1.28253968870582    2.80428071436987
H          -1.25034130424178   -0.92388922412348    2.21780256256222
H          -0.08234905957363   -1.91960268375665    2.27052392229294
O          -2.39452234707454   -0.60870113455422   -1.94602284593972
H          -2.64721281168191   -1.51469758623401   -2.12846950240853
H          -1.49895400157937   -0.47806321446181   -2.36203684301393
O           1.12333255770349    0.76862982207774    2.74505415234104
H           0.45840051385239    0.04565737432270    2.86601811632176
H           1.50101241496738    0.94729341517126    3.60829088708794
O          -0.84671043176126    2.39325370437533    0.34710637160336
H          -1.18282905554599    2.87749014644760   -0.40946225105022
H          -1.44169394604057    0.84133923094869    0.56074439610446
H           0.03426046370981    2.05796609344628    0.08856872310261
N           0.10526031033948   -0.29909764785795   -2.86046163847828
H           0.45568575731589    0.46653567455437   -2.29127179648501
H           0.28016276967171   -0.05894517528810   -3.82957849473929
H           0.70741197299718   -1.08371448137492   -2.63301181458689
