    26
        -50.46329467  Gyration_radius:  2.58275696939 Dipole_moment: 2.489
 S          -1.09961410208334   -1.15301713862985    1.57441565614771
O          -0.23643723664941   -2.02987459714354    2.33265042350523
O          -1.22432253460416    0.18570419107501    2.08442726950846
O          -0.71022122821914   -1.12894011733319    0.14822196136550
O          -2.54380099966934   -1.81289092638353    1.59996425834006
H          -2.36622684777972   -2.74158503432277    1.71785659575624
H          -1.29099196036297    0.49974208583016   -0.11582127162428
O          -1.50705718432015    1.41039226961096   -0.39079907218413
H          -1.83269877330495    1.82048783514681    0.41426425510376
O          -1.14000399695504   -0.58892470777663   -2.50629402998878
H          -1.01506966145046   -1.02695330092706   -1.64983371674743
H          -1.65701992302235    0.19814946991158   -2.30428681850137
O           1.26825846751158    0.44600255993875   -3.06610694145077
H           1.32462166494208    0.60522338458878   -4.00859873060935
H           0.41058841651684   -0.01586665801866   -2.91626615171710
O           1.35246546682003   -0.02183595268343    2.97283853056798
H           0.58860460437401    0.56610675403515    3.03733818074285
H           0.93978153120420   -0.90920979129676    2.95632705305656
O           1.05182578451286    2.11262058089250   -0.96637213637446
H           1.19385698057697    1.70496768054064   -1.84450872246024
H           0.08719591265373    2.04887328888302   -0.80423917235463
H           1.55584748089439    0.91819492714800   -0.13018154899343
N           1.70992764299949   -0.04027869569092    0.34511693171972
H           1.76823697985051    0.05639906169681    1.39669572280803
H           2.52785343825227   -0.50262123813660   -0.03786171068523
H           0.84440005970277   -0.60086594303960    0.16105320343427
