    26
        -50.46995305  Gyration_radius:  2.48931711898 Dipole_moment: 2.962
 S           0.54277512496405   -0.11229634570633   -0.59087714104986
O           0.56854834684302   -0.04068729582221   -2.14176924054036
O          -0.51538196225935    0.80441516065398   -0.14409465545751
O           0.24426515743518   -1.48456791230607   -0.23156151126332
O           1.83947395526724    0.30932690765637   -0.07461190821817
O          -2.20208137170423   -1.39366542682999   -1.42751328591376
H          -1.26745838472586   -1.39751649236599   -1.16757712919440
H          -2.25339304039214   -0.86006264127193   -2.22134302186518
O           1.45041388399743   -0.71380933891119    2.34368106408972
H           1.63292285136102   -1.64308762915707    2.18387621892376
H           1.70816542989433   -0.26162579942725    1.51062295155496
O          -1.88796448837833   -2.59316112465905    1.07185879955629
H          -1.01573196053041   -2.57334930751681    0.64278375799492
H          -2.49737530474615   -2.41045331657764    0.34408879683662
O           2.49316299587210    2.74418708406658   -0.90491087801563
H           2.31314713667187    1.86786545701385   -0.50174103638353
H           3.34916151000521    2.66922470579361   -1.33011744709841
O           0.15502003418897    2.48237711354836   -2.18198629582183
H          -0.38583567363736    2.30203730623783   -1.39939300334352
H           1.01129791947911    2.80668468678540   -1.82816887746983
H           0.44356232098568    0.93531216342097   -2.35854813643804
N          -1.17209463052915   -0.27702039058955    2.11606900598499
H          -0.18123455014362   -0.45444612382738    2.42641336280665
H          -1.60580855902889   -1.20725414929500    1.84088118388033
H          -1.71331268344861    0.22602556356168    2.81043519318478
H          -1.05424405734142    0.27554715554042    1.21350327327949
