    26
        -50.46329459  Gyration_radius:  2.58308024903 Dipole_moment: 2.485
 S          -1.01983545663376   -1.27946115501830    1.53097727795494
O          -0.11860099980829   -2.20865311215157    2.17379577453346
O          -1.12065113378733    0.01436964895952    2.15050362461781
O          -0.70261781469863   -1.14103113682342    0.09350375879912
O          -2.45990822924520   -1.94738292434569    1.57657750980758
H          -2.27505911418143   -2.88132141406174    1.61507801783570
H          -1.29747145179781    0.50095221325864   -0.01140740046555
O          -1.52725060698287    1.42932724466063   -0.20354337885640
H          -1.81328997401331    1.77404413461069    0.64597280825796
O          -1.25976195053914   -0.39256058810430   -2.48636515845635
H          -1.76680639000294    0.37352017266937   -2.19718763138345
H          -1.09360377483805   -0.89724040189023   -1.67482186581148
O           1.11758728017141    0.69363086825385   -3.08029391215947
H           0.26862204528680    0.21749929458706   -2.92577794346669
H           1.12747788704677    0.92741316076594   -4.00877155265769
O           1.49810375290109   -0.24969346574541    2.89098989998802
H           0.73871897632453    0.32849983830845    3.04017338528734
H           1.08502275610690   -1.13459137651558    2.82493600800518
O           0.99992001327951    2.18696191784433   -0.84668408841120
H           0.04450916551173    2.10574762762392   -0.64332925470258
H           1.54559064571314    0.93180935821215   -0.13413649682771
H           1.09967667393567    1.85123606058939   -1.76036394071346
N           1.72357447227348   -0.06045615027046    0.25540231352248
H           1.83455491641214   -0.04653738151188    1.30707999212300
H           2.52142078587025   -0.48756286171824   -0.20337088699553
H           0.85007753979596   -0.60851956229888    0.07106316090056
