    26
        -50.45400610  Gyration_radius:  2.46716669469 Dipole_moment: 2.271
 S           0.87437477502514    0.72317142855283    0.96180877286481
O           0.29407545855259   -0.49558083304436    1.46332859594009
O           2.08515486167729    0.55045746645741    0.22112966021651
O          -0.17285406250384    1.46490042052963    0.10253820125328
O           1.10780551022012    1.71589796352870    2.09898616356366
H           0.18017459031403    1.95501753404387    2.43443509780082
H          -0.82957912561614    0.84093878837134   -0.38701587931416
O          -1.81862936262861   -0.01778731445295   -1.10442678172070
H          -2.21891245454013    0.50261211596982   -1.80470930826554
O           1.65710397503201    0.58502179946426   -2.43140401659707
H           1.84063899470085    0.62988337795535   -1.47358428422355
H           2.51055785174082    0.59570304075434   -2.86795891638413
O          -2.31784186903632   -0.05318835300521    1.72707369242817
H          -2.55769896063858   -0.10908987867577    0.79437991165298
H          -1.42859618010047   -0.44780424458438    1.77508483742210
O          -1.33127297229980    2.23746056580869    2.62704471857439
H          -1.81540809278102    1.40353382914546    2.39725105907884
H          -1.57170215964333    2.88100880187762    1.95596913723863
O          -0.12603795331535   -1.46325453455012   -2.32439748017193
H           0.35881191249954   -1.99421554057281   -1.64381122082042
H          -1.19922969702959   -0.68244791196711   -1.58406536355175
H           0.49836477217926   -0.75277843372997   -2.56528807319769
N           1.34866564846700   -2.49799689134302   -0.33018545084714
H           1.36037652522629   -3.45460878771318    0.00143415450445
H           0.96241236157356   -1.91577510877897    0.40965006167330
H           2.30924566290013   -2.20107930003459   -0.45326727910906
