    26
        -50.44653790  Gyration_radius:  2.476571632 Dipole_moment: 6.221
 S          -0.20625569343531   -0.55655350376991   -2.24966238964732
O          -0.56125050346764   -1.05491189149801   -0.93137767146637
O           0.27002152243441   -1.49856021806499   -3.18475831691029
O          -1.44308984811250    0.18291542267027   -2.82385060093253
O           0.83623680581693    0.55972375977845   -2.04713453236828
H           0.70485849983439    1.05900028742164   -1.16557336367758
H          -1.83162618645815    0.69308294797353   -2.06779349981770
O           0.65104289645457    1.80967409573498    0.17562715894100
H           1.63689810522063    1.83871357581713    0.19597898565517
O          -1.99837192826964    1.19323912160321   -0.49504130137322
H          -1.61590510380905    0.34290950582162   -0.22572100540598
H          -1.34540691432834    1.86424375424704   -0.25867243394533
O           3.17071562110719    1.08474422501115   -0.10516913435674
H           3.33345575157333    1.04613328258192   -1.04970549352591
H           2.86084309895542    0.18894341653876    0.14670836527992
O           1.76895445081228   -1.14427705979869    0.55653745735844
H           1.36909533457992   -0.82957814337727    1.37871139653753
H           1.02562391284683   -1.27808794645609   -0.05027833754405
O          -0.01458928080781    0.20783597771339    2.26992552187129
H          -0.74484952770221   -0.44096289538076    2.07254211106468
H           0.41497065645806    1.24121868826709    0.94007021273052
H          -0.18468485115354    0.57170421303131    3.13940694182024
N          -1.87900806204010   -1.58091944784568    1.58132782876229
H          -2.84634609195242   -1.29643469797938    1.48640636840249
H          -1.86222551934817   -2.46987630537290    2.06541034443899
H          -1.50910713492142   -1.73392017456758    0.64608539806897
