    26
        -50.45484720  Gyration_radius:  2.49642885149 Dipole_moment: 5.218
 S          -1.10656357840133   -0.51587882828483    0.99426272078537
O          -1.53225231808778   -1.75674169731392    0.38410642492117
O          -1.17628072272543    0.62936226231111    0.11235344118245
O          -2.04253232030442   -0.19751384932984    2.20691525232042
O           0.25730543803436   -0.64977256004623    1.54879991643572
H           1.16350306122807    0.35893955346778    1.17243981211511
H          -1.96894308856687   -1.00579300266897    2.75235533532829
O           1.78232238567373    1.12289911298564    0.76187794099565
H           1.15226318530651    1.97177956410855    0.71094692986997
O          -0.14299376935262    2.10376029594368   -2.01473330019260
H          -0.69341541846030    1.49743665410086   -1.49557830663779
H           0.67456653219651    1.62684481132415   -2.19526823829391
O          -1.21143122297872   -2.60422655813294    2.90268247646141
H          -0.29362011022276   -2.31319360669319    2.92760091656756
H          -1.41173220897663   -2.71734747387619    1.95897399358422
O           0.07301020386725    2.94703555642620    0.51748065156804
H           0.06318491344554    3.06242016699807   -0.45654899363511
H          -0.65811498042740    2.31866042887220    0.66537664214575
O           1.99950361186929    0.23991124844002   -1.64540857486138
H           1.93515128425606    0.81856832694595   -0.19715813624010
H           2.81459863347495   -0.22624202635747   -1.83728081735256
H           1.23944488421661   -0.43161057106726   -1.75370593088974
N           0.00633766965696   -1.41289223761898   -1.97363107359596
H           0.22768410906842   -2.34530725958556   -2.30332776048604
H          -0.63520168315000   -1.00206820284255   -2.64243978761853
H          -0.51579450066446   -1.51903007799707   -1.10109152444755
