    26
        -50.45676981  Gyration_radius:  2.57786712128 Dipole_moment: 5.501
 S          -0.87685891985595   -0.62688430475877    0.60761457923493
O          -0.89152876201491   -0.24273390100596   -0.80998723698717
O          -1.13781786167718    0.48337033290827    1.49133196915788
O          -1.72097258506779   -1.79755786682232    0.82273263928573
O           0.58963812883188   -1.13128144097586    0.88743082924667
O           2.18834622719310    2.39105478605656   -0.32000186843217
H           1.34506245634081    2.34500598936179   -0.84374062095229
H           2.35344153052345    3.32336180540432   -0.17050099094134
O           1.46998326272476   -3.27663569934737   -0.52161894333578
H           1.34378861711388   -2.46100718784488    0.00115783558297
H           1.76245840007822   -3.94857023721873    0.09667967700313
O          -0.19316430178774    2.29718800252212   -1.43906111103851
H          -0.68985568609073    2.76386123839512   -0.74262069275191
H          -0.44910681823142    1.36303140835197   -1.33684055009123
O          -1.51982570205963    3.03946406831102    0.83653601765154
H          -1.41864606468495    2.11048172899494    1.12802915379044
H          -2.45574500378773    3.23490834719646    0.89721109388740
O           1.56365370809866    0.98753802582307    1.82443842727795
H           1.88290936170306    1.51256236862203    1.04320862688287
H           0.68123101332151    1.31702467098803    2.03751182985314
H           1.08999504687610   -0.32574249246677    1.28074007189558
N          -0.99064065903074   -2.71992556554025   -1.40153195732851
H          -0.04715709216164   -3.14518832520990   -1.26994657440986
H          -0.87354834481549   -1.68570025429294   -1.58113550811575
H          -1.55882854248439   -3.19736983019734   -2.09227176772918
H          -1.44681137900717   -2.61025566723790   -0.42536493860921
