    26
        -50.44208748  Gyration_radius:  2.55239058917 Dipole_moment: 7.441
 S           1.73350510939427    0.14334965425247   -1.74566062075311
O           1.10540247497684   -0.78061246689265   -0.83162184349906
O           1.89503615041042   -0.30059698308429   -3.07941235185495
O           0.90570345152840    1.47377678661054   -1.69564440093792
O           3.07995517368546    0.61177015886736   -1.16920016540026
H           2.85291223330711    1.09530870676359   -0.32815317817747
H          -0.04780077639159    1.28563357507948   -1.45955193714947
O          -1.55280730838744    1.02401970148149   -1.00524386243166
H          -2.15690740787740    1.36389092748111   -1.66735179837067
O           0.49320784005697   -1.07804904037666    1.84582019753582
H           0.21508306215895   -0.15963321976543    1.94712630515140
H           0.85206319717876   -1.12892774750058    0.94710495377460
O          -0.42072803528133    1.59201059227895    1.41497761475545
H          -1.00606367893922    2.12865171866410    1.95159827437801
H          -0.89345159566512    1.38965117610668    0.58706647824689
O           2.22138158386910    2.06040775091484    0.80085323953554
H           1.32209878367272    1.81368553942096    1.08736743845390
H           2.13527643531620    2.89726605481969    0.33787398038195
O          -1.48481613115794   -1.49122724979849   -1.20842942464365
H          -1.60042284846251   -0.00510875576850   -1.07425860711140
H          -0.51354733059806   -1.52076172786266   -1.21503459541920
H          -1.74502570042210   -1.91347640611700   -0.34315109029740
N          -1.89398231876158   -2.53483546122187    1.22054497738941
H          -2.67219440427196   -2.30670899968235    1.82573460210104
H          -1.04791830754634   -2.11971783077885    1.62098738181653
H          -1.77595966175766   -3.53976645387833    1.23565842255824
