    26
        -50.45462880  Gyration_radius:  2.52331112396 Dipole_moment: 3.147
 S           0.57493297042694   -1.97758144804305   -1.52383247082926
O          -0.15596482027740   -2.47480509812993   -0.35765904271787
O          -0.09818130077626   -0.85973969032787   -2.14882439801631
O           1.96491574673856   -1.71990701573015   -1.20145954464788
O           0.56670596835159   -3.15511821870270   -2.57685417187040
H           1.07865704306516   -3.80975543037886   -2.11488948903787
H           2.05161770613085   -0.78724836646301    0.08046533481159
O           2.08968243386685   -0.13413244854071    0.82901668529577
H           2.96475361591839   -0.22316994451386    1.20987839978732
O          -1.99721107704546    0.63564081764688   -1.03701802187936
H          -1.28058186415007    1.27300259913577   -0.87994110057278
H          -1.59962617477521    0.03083539742622   -1.69260770026186
O          -1.75063900853104   -1.00956975071482    0.88356091676310
H          -1.13961750985552   -1.69160270414253    0.39830445481376
H          -1.98775510300451   -0.31959411286573    0.15558786082302
O           0.65286554638599    1.46987098373033   -0.93326585421199
H           0.55593756123349    0.74472727911090   -1.57412952840723
H           1.29469188775357    1.13301572483646   -0.29104547952020
O          -0.15227055021035    0.26639102548745    2.29636651471494
H          -0.35662664702655    1.21316148798388    2.06003241866835
H          -1.10088026328297   -0.49849340810071    1.57354635926476
H           0.70412713384752    0.06570550628901    1.86869593160665
N          -0.68940789378518    2.72592598213212    1.38231158336406
H          -0.34287224351555    3.51218712836743    1.91634241394155
H          -1.66568562756655    2.89553022910647    1.17490897091299
H          -0.18156754993630    2.69472347540218    0.50250894719591
