    26
        -50.46775025  Gyration_radius:  2.4205977682 Dipole_moment: 5.387
 S           1.14834015237475    0.91274256554446    0.28070111557171
O           1.08775930481849   -0.01492655315361    1.42594224911301
O           1.51486206559439    0.21914712113276   -0.92966284912306
O          -0.11018483585396    1.64245868963466    0.17945937967436
O           2.27732707170509    1.94629687697816    0.58368494429316
H           1.99931668581419    2.35652654642650    1.42573390611018
H          -1.22349663103205    0.46311468839985    0.64952111404428
O          -1.80953854048571   -0.26903810781225    0.93165622977513
H          -1.53324134133000   -0.49210879842987    1.82241692499022
O          -0.45470065710356   -0.61678481565056   -2.63079616530738
H           0.34335971268928   -0.27081767588987   -2.19675761357787
H          -1.09240188441586    0.12255111117716   -2.58710270889666
O           0.77781740274330    2.32273151507134    2.73475261533120
H           0.03113806141528    2.59683969571276    2.19136962337508
H           0.82522538109682    1.35807679142544    2.64456099667589
O          -1.98359854987717    1.46620346613976   -1.80418895507815
H          -1.28287023980935    1.71706208167705   -1.17861014319329
H          -2.71091292658661    1.14459997446581   -1.26603005609577
O          -1.18726635983601   -2.27638246508058   -0.76161710162868
H          -1.02005746168893   -1.75390210227557   -1.59730488304052
H           0.17000837342506   -2.37880693914046   -0.27624902217257
H          -1.60372154341039   -1.63231570175276   -0.15100596937723
N           1.22729310944132   -2.22946072549163    0.05880620198485
H           1.72523612367689   -1.79132172476027   -0.72160303340688
H           1.67976609940568   -3.07748064313003    0.38254388649896
H           1.20454139723234   -1.46500487122286    0.78977930344090
