    26
        -50.44083237  Gyration_radius:  2.86071065377 Dipole_moment: 6.391
 S          -1.44287449699640    0.68297142033236   -1.79200149987708
O          -1.40426885396737   -0.42703286687957   -0.85585007596840
O          -2.22529296725438    1.80101720953058   -1.39547015148956
O           0.02718648889914    1.09985786330410   -2.07082247710112
O          -1.91126239068776    0.17159466165165   -3.15841181415168
H          -1.44628175797117   -0.73421390055962   -3.29235600279054
H           0.59235779407680    0.83006276181891   -1.27848512112521
O           1.07121087287686    0.15209136738547    0.05464746603192
H           0.28608437955747   -0.41485886937025    0.04418900728075
O          -2.19544100727797    1.17116984558678    1.27852955958423
H          -2.45993446043431    1.80819946582339    0.60307341493939
H          -2.06787093087720    0.35176061831690    0.78283460485156
O           1.29392494081261   -0.18743921510063    3.71935740537142
H           1.78074332239435   -0.06806116850932    4.53538774432220
H           1.91529280652555   -0.57992596295963    3.07413907096205
O           2.99608040945640   -0.90214894447182    1.69494624358637
H           3.74670243576555   -0.30920325741674    1.62881632891686
H           2.37135326925297   -0.62269280277591    0.99823500577511
O           0.36655012481104    1.69272833262894    1.97047895189500
H           0.86929980999693    0.84025946100556    0.78143739277570
H          -0.60608820044477    1.62455062540049    1.87081774400735
H           0.59711149976058    1.12672797051870    2.73225151539897
N          -0.65946798482219   -2.07271905439362   -3.07857103520528
H          -0.77358413025138   -2.09126346714677   -2.07039603675823
H           0.32605948289479   -2.02594447147010   -3.30035495378244
H          -1.04759046603006   -2.91748761228535   -3.47642229734585
