    26
        -50.45462864  Gyration_radius:  2.52348145847 Dipole_moment: 3.151
 S          -0.93207626163448   -0.08817319823947    2.38505138920266
O          -2.04966230183844    0.01817944677515    1.44649237810693
O          -0.01121513899908   -1.14082718212824    2.01445825396905
O          -0.29787898425630    1.19904302031086    2.59403358438642
O          -1.56507732492157   -0.50928130420126    3.76971435750910
H          -2.09136296871925    0.25843960607176    3.96395977392026
H           0.08631980586292    1.84376939348172    1.19555139398064
O           0.39641021375674    2.19589617665681    0.31894151055566
H           0.51262601510730    3.13919303812343    0.44223893611717
O           1.83713317584484   -0.18404063105607    0.24290160985401
H           1.57118533942919    0.74596590112818    0.19759953342933
H           1.40565171829070   -0.51479033861581    1.04939694412782
O          -1.84533914857654   -0.80867679540204   -0.90026799661850
H          -1.09116441981322   -1.50269783875143   -0.79500604976346
H          -2.02371827093660   -0.47961947800452    0.06576857589730
O           0.14169167057794   -2.30284511723578   -0.37335958704358
H           0.90660228621681   -1.72028926260645   -0.51337336671723
H           0.00982692521988   -2.24710613302839    0.59278253972863
O          -0.63860853017315    1.10298358954131   -1.93204271226974
H          -0.32954484453234    1.59911482246417   -1.14759138970171
H           0.17382506499691    0.66958044987880   -2.31472831638160
H          -1.40096492015391    0.03479335783729   -1.40315391167266
N           1.57460284261005   -0.19299550993947   -2.70084612625934
H           2.19073545493127    0.27393905380587   -3.35334760426325
H           1.41735644954374   -1.13416647678595   -3.03904399535953
H           2.05264615217515   -0.25538859005592   -1.80612972475080
