    26
        -50.44978534  Gyration_radius:  2.43443531752 Dipole_moment: 4.822
 S           0.17945440695982    1.59781489678212    0.96625302668899
O          -0.85894638709317    0.61404990019330    1.12693612998492
O           1.24215892197901    1.55052006860739    1.91016680771212
O           0.76664775800733    1.46293715486058   -0.48300268884946
O          -0.45261693481319    2.98407135324875    0.88421225993345
H          -1.36036049598737    2.82253536527117    0.44252408418140
H           1.27999268386693    0.61291922880962   -0.64559258007397
O          -0.50117591376878   -1.81724792716151   -1.47655245032727
H          -0.70138549480023   -2.65816872822082   -1.88991771708114
O           1.89009469505534   -0.71935719116163   -1.25088904269065
H           1.04015936064787   -1.21462233334172   -1.37532288579640
H           2.22408676374947   -0.52033655422881   -2.12846424817366
O          -1.41411473955107    0.78588439010087   -2.06083240971791
H          -1.31093361763842   -0.16452131637259   -1.89322863079348
H          -0.58249879458442    1.18438924730533   -1.77298533050668
O          -2.63786811937842    2.21497472228796   -0.15625463261089
H          -2.35588643239470    1.75509634604855   -0.98173300324356
H          -2.75426782648967    1.50923780163898    0.48999527676267
O          -0.66553213862913   -2.07549284487483    1.07327023623608
H           0.27560035098148   -2.02696371968780    1.37148078117692
H          -0.99055091521042   -1.18037532521006    1.25753875337101
H          -0.62661054731785   -1.95838022672885   -0.48038071303559
N           1.84515816595696   -1.33857748630185    1.73516457175356
H           1.64879566046874   -0.37035838525932    1.97934212546679
H           2.39970021900873   -1.32192649462030    0.88692378355832
H           2.42089938093530   -1.72810194203042    2.47134848608288
