    26
        -50.45816993  Gyration_radius:  2.44094005669 Dipole_moment: 6.116
 S           0.91396702078204    1.42082755850336   -1.18520531896062
O           1.17432819597785    0.02787990357251   -1.59870071303660
O           0.09088914936812    2.14259208442057   -2.10978463941512
O           0.04587770838904    1.26355920991054    0.16101026527154
O           2.13758319373998    2.05641657531125   -0.73371525027887
H           2.87861345914221    0.87944441490293    0.05353237976288
H          -0.86540733613400    1.12792773617442   -0.20637617532160
O          -2.13227362183054    0.90232489261805   -1.22081677525760
H          -1.65760447361382    1.48752152882362   -1.83519018113935
O          -2.69225810723136    0.17114976107381    1.37453265092904
H          -2.80630827223761    0.45433556829300    0.45302817427970
H          -2.33220489031430    0.92568548272520    1.84506231688996
O           1.05050778782131   -0.41300218883480    2.08653857928023
H           0.65347052156058    0.36875237139234    1.66853328223418
H           0.43205093920126   -1.13316342032463    1.86543519203536
O          -1.03833958126557   -1.93196270671771    1.17873281566924
H          -1.67870976223023   -1.18943187387543    1.28550367926936
H          -1.47367950147762   -2.71213825878014    1.52533286071482
O          -1.04208408755790   -1.45619849158639   -1.61185561508190
H          -0.18436593178275   -1.01400562459971   -1.76768281187559
H          -0.99258552437902   -1.79933780994519   -0.70630528344614
H          -1.90919024703864   -0.02043814496836   -1.51230568716003
N           2.91287612868115   -0.16859025472127    0.23692765289952
H           3.84805275307427   -0.55954670351508    0.24115254410493
H           2.31585016842968   -0.44976820902505   -0.59567333670449
H           2.35094431093181   -0.38083340084611    1.10828937429258
