    26
        -50.46995311  Gyration_radius:  2.48926623368 Dipole_moment: 2.963
 S           0.51573119772668    0.39315374733680    0.48560896263225
O          -0.05812458563133    0.42131368790024   -0.86703683403772
O           0.81520929545045    1.86669182097508    0.87321572337811
O          -0.43247115880111   -0.11900568693671    1.45513638563331
O           1.76170660999727   -0.36391006565236    0.49942159292647
O          -3.01105429453101   -0.98562266896995    1.18237094367536
H          -2.17197000880188   -0.80905144139317    1.64070671626449
H          -3.34478079862863   -0.10071936188953    0.98236499661688
O          -2.33988419838206    1.68293348483089    0.72109077367694
H          -2.01428818814422    2.54496671449484    0.45972080293587
H          -1.56591424195153    1.18699488447477    1.03099101375087
O           0.57040985308597   -2.73568396645954    0.54564734317994
H           1.13463184620610   -1.93328517215736    0.49353517163627
H           0.32836304126804   -2.80448774434398    1.47250453453800
O           3.58274659912987    0.69457481098065   -1.11620553752077
H           2.95936871865051    0.20004803299261   -0.54205442721540
H           4.36319492526446    0.85505304792059   -0.58296017744548
O           1.61970875215309    2.47898218500265   -1.47560589248380
H           0.94089707362472    1.84998768951375   -1.76029507879163
H           1.18872481438802    2.28457554600962    0.03598585066325
H           2.46151404103431    1.97523751518857   -1.51019792580013
N          -1.48481722896998   -1.74027640610689   -0.83454141537218
H          -1.83545174011329   -2.16053702415291   -1.68809818551187
H          -2.24841499339038   -1.53478637815771   -0.12473430047203
H          -0.74931888975250   -2.33076101985188   -0.36547714749251
H          -0.98571647092778   -0.81638624150964   -1.01109386937239
