    26
        -50.47220515  Gyration_radius:  2.41979509431 Dipole_moment: 2.805
 S          -1.27571054626974   -0.68063532729598    0.93003766934119
O          -0.85802427623703   -0.73203723445487    2.30921602150435
O          -1.45977278244664    0.68911647314336    0.46040284507296
O          -0.43185536156871   -1.45204779157418    0.03662657831534
O          -2.70530213436222   -1.36852257824821    0.86307015439826
H          -3.04192661585734   -1.18482600246991    1.73305916234145
H           1.18101824442888   -1.28004075824271   -0.11460900264560
O           2.14995905009078   -1.10446911574124   -0.14748904845743
H           2.55775092110678   -1.91291888775937   -0.46156227072339
O          -0.78778661420744    0.85562574328260   -2.17106104234558
H          -1.12430172010585    0.01949233592632   -2.52917344665614
H          -1.13870497805092    0.88406926890719   -1.26461784958491
O           1.68123702787609    0.11559858076108    2.31550775876842
H           0.79635874753827   -0.27004159198127    2.48042149647298
H           2.08169505682447   -0.42337981866107    1.61454471337405
O          -1.98884640483000   -1.64137539277725   -2.13311216214989
H          -2.87804879629189   -1.70450635463539   -1.78062129082566
H          -1.39597818859449   -1.71327014425382   -1.36443097277426
O           1.75314502712568    1.27879904425299   -1.50121227524597
H           2.05656695292931    0.40579290159162   -1.19885118934055
H           0.88082452746057    1.12807973210984   -1.93779555691543
H           1.26602553873097    1.88070195864918   -0.17260845365896
N           0.79282411613374    2.05578499663476    0.78451255789646
H           0.80234459424775    3.03450513285613    1.04692631163031
H           1.26892226336912    1.43466324871122    1.50323663560457
H          -0.18241364907753    1.68584156109592    0.69958262656677
