    26
        -50.47220344  Gyration_radius:  2.41993708228 Dipole_moment: 2.820
 S           1.63068998626206    0.33276656818086   -0.43267712222432
O           2.32900967158539   -0.92096669040793   -0.57465897186285
O           0.61738594644456    0.52107048336888   -1.46590615078984
O           1.09488481396639    0.55303100202969    0.89796666778549
O           2.70960931607878    1.47692658226475   -0.65297078925154
H           3.34573781669010    1.02905564790273   -1.19943710185775
H           0.08817268801188   -0.46007903730013    1.68035222955378
O          -0.52171708033893   -1.12423564855323    2.07769408081750
H          -0.45262301081584   -1.01604219003979    3.02745724813941
O          -1.49279070089435    1.90929246791993   -0.45468294779809
H          -0.75736951411094    1.49412623085717   -0.93671416135457
H          -1.06061475062271    2.55735641319495    0.12314790628354
O           0.56202705480381   -2.80370391209199    0.13381768337761
H           0.23192389230435   -2.46823970817101    0.98274256937947
H           1.33645523886746   -2.24891260139494   -0.09267958440273
O           0.60378708003213    3.18401616981490    0.83017039493709
H           1.30559400576747    3.53736017180417    0.28109970061952
H           0.83762027051174    2.25228357137614    0.98700984735269
O          -2.58489905125499   -0.36439287947840    0.39446039546600
H          -1.84972943019989   -1.10009972414091   -0.73811317009948
H          -2.03071283370082   -0.61187827303509    1.15427705610236
H          -2.33849810672410    0.56434440336413    0.16866780350781
N          -1.10669927846699   -1.49696359826934   -1.41717949446349
H          -0.45502462537246   -0.70641523586789   -1.63012684006884
H          -1.51881983475104   -1.88202002976450   -2.25904020383784
H          -0.52339955422949   -2.20768019360851   -0.88467706562104
