    26
        -50.47220389  Gyration_radius:  2.41999557106 Dipole_moment: 2.793
 S           1.18129239401295    0.42880133683744    1.17515643861728
O           0.70254267721413    1.57515358166918    1.90710619452136
O           0.38765517906237   -0.76657754135995    1.44435909618851
O           1.33711725646143    0.66867693072308   -0.24719938369884
O           2.64234741698154    0.12104045631135    1.71465979883911
H           2.57361109254783    0.40980723686649    2.61788747247469
H           0.16757272311549    1.21293468796572   -1.24268667236044
O          -0.59720018670254    1.53665259066803   -1.77277064023123
H          -0.22459002644650    1.98246442445276   -2.53497412908308
O          -1.59906816804040    2.26318103474161    0.72718676202833
H          -1.35146419269655    2.29258362476145   -0.21080654123545
H          -0.75964117189265    2.18777268671736    1.22591428402471
O           2.88143900302311   -1.39094546463457   -0.98294634120714
H           3.46599356630499   -1.52879366407717   -0.23583433667000
H           2.40794924434670   -0.56115336479665   -0.79617146787778
O           0.27548590584030   -2.31384234170601   -0.79090768024298
H           1.16818591526716   -2.22217984174288   -1.15871262818291
H           0.33169826154781   -1.88514894944941    0.08009744007353
O          -1.83560223897840   -0.93738931825421   -1.64634461792079
H          -1.45400206739866   -0.08762995023450   -1.92549936269980
H          -1.07125761874834   -1.54548053169784   -1.50352026239566
H          -2.17914469913435   -0.62122763503214   -0.18125644198555
N          -2.15755579227137   -0.30004616253283    0.85172401591167
H          -1.22649508259621   -0.59334812629867    1.22888991590528
H          -2.92162253987441   -0.68768295772712    1.39281821560522
H          -2.14524688094991    0.76237725782263    0.86383089159017
