    26
        -50.44403030  Gyration_radius:  2.48621510934 Dipole_moment: 4.357
 S           2.21134606946369   -0.01656747967727    0.13233485850654
O           1.44677339101820   -0.82738800091056   -0.78287078340143
O           3.61395540984008   -0.19123613172755    0.14747688951993
O           1.84725143950014    1.47118361025781   -0.13489120219330
O           1.67854606878402   -0.25082395032535    1.56931250778058
H           0.69357017904872   -0.04235287616000    1.61872076019684
H           1.11310563568865    1.53586670754776   -0.81126773339787
O          -0.82317197527405    0.27876981448606    1.77654472908616
H          -1.08156114033698    0.17192223718937    2.69408645782158
O          -0.13989105351913    1.99722555461473   -1.71204155554301
H          -0.63490050269520    2.32239728234078   -0.91837457837977
H           0.10775334917705    2.77164267202944   -2.22124908412551
O          -0.98914060684494    2.74412598528621    0.66775441423001
H          -1.06453455560345    1.86088551874665    1.08063952449246
H          -0.19806370072403    3.14007976783657    1.04054900216028
O           0.57778534986035   -2.89534362370346    0.71484724887997
H           1.16578251976988   -2.84902755869601    1.47074253335099
H           0.92999387616072   -2.26399617458121    0.06143581417008
O          -1.84728319690176   -1.66759572606860    0.56093586252168
H          -1.79183810156224   -1.39338281157952   -0.39498690628244
H          -1.12727792438718   -2.31854513991762    0.66578176095652
H          -1.29622731662559   -0.49703795233222    1.26281484326321
N          -1.25147490007970   -0.85753648780471   -1.90594777380032
H          -1.45373040741587   -1.41069000747024   -2.72891163238071
H          -0.25250540468649   -0.92590746843423   -1.72455264493050
H          -1.43426246167659    0.11333221904218   -2.12888331249148
