    26
        -50.44403049  Gyration_radius:  2.48721129318 Dipole_moment: 4.430
 S           0.44959296703869   -1.51430341452270    1.55893177129075
O           1.41324973957942   -1.01270634186890    0.61042262133921
O           0.87041848489875   -2.53391847719279    2.44290388091577
O          -0.11303551977380   -0.30063467204275    2.35045993659217
O          -0.79085223920848   -2.02804379207138    0.78283295343515
H          -1.17661323712532   -1.29441202205523    0.20977607694909
H           0.24215108045259    0.55650725237043    1.97553057826516
O          -1.84023589575307   -0.20731913038862   -0.69007087109314
H          -2.63136844704942   -0.56565309082829   -1.09724780840920
O          -2.09891379785447    1.88009964460018    1.01368663803388
H          -2.05075922121579    1.20821958596804    0.30441093055147
H          -2.43066691179719    1.41995313974021    1.78809951655621
O           0.90208392921729   -2.38396228234678   -1.65477653866363
H           0.38259198199759   -3.11838041731039   -1.32319391333778
H           1.24663614672186   -1.92220282667441   -0.86878923578870
O           0.47626487221940    2.08457450890884    1.53225893777910
H           0.60252606724943    2.62235473041512    2.31660991931667
H          -0.46962283490597    2.19323441321685    1.25948281159605
O          -0.15195313927379   -0.03678518244641   -2.54318294160369
H           0.24553587990613   -0.92645599349004   -2.48151910538768
H          -1.15831623763871   -0.08289325158936   -1.47090629764571
H           0.54219917983693    0.56810042606645   -2.16323450586404
N           1.70447473862022    1.28890801989999   -1.16758915825036
H           1.83072273270246    0.51164245805163   -0.52301581234602
H           1.39253214903684    2.07407379661106   -0.60913752265434
H           2.61135753212853    1.52000291914551   -1.55274284154130
