    26
        -50.44213319  Gyration_radius:  2.59769655884 Dipole_moment: 4.734
 S           1.97065293440228    1.26018450039460   -0.44754045386319
O           0.56951497028757    1.42646647951468   -0.76583936373627
O           2.90893303543269    1.56845096025319   -1.45883657682291
O           2.25314650917526    2.11988028524646    0.82619942290197
O           2.21306220392447   -0.18510690712489    0.02443420199343
H           1.55260446165316   -0.47775716158622    0.73933580350048
H           1.42018406572866    2.19082736049767    1.34721949964151
O           0.57477526443927   -0.84453354730939    1.85874586883351
H           0.93306503184329   -1.57052108689485    2.37213342297716
O          -0.24788135229707    1.74890632262619    1.69873926018653
H          -0.23598036464249    1.67879940148591    0.72255565813426
H          -0.03346135416014    0.85928272269038    2.02592675750026
O           1.12179473229855   -0.18273676186642   -2.89941387533040
H           2.05108124121095    0.05185712914303   -2.95937632253903
H           0.72501102680122    0.50584372287793   -2.35130547728869
O          -2.84762571941103    0.74376486825493    1.33566083122711
H          -2.07967670899491    1.30430866990231    1.53598515604696
H          -3.48620733386452    0.88136459766364    2.03642115084466
O          -1.55167304218817   -1.62918593615549    0.76867885477313
H          -1.37534351799767   -1.73685484087048   -0.20886148052450
H          -0.28873078677200   -1.20916075258350    1.40833394617600
H          -2.14285092449437   -0.86080261907246    0.86051140822817
N          -1.04693435357213   -1.89550655902822   -1.83979981112479
H          -0.98770754519102   -2.85875457440375   -2.14753108726852
H          -0.18071027956717   -1.43615918592077   -2.11344513874368
H          -1.78904219405498   -1.45285706773996   -2.36893164571991
