    26
        -50.46147057  Gyration_radius:  2.59157924951 Dipole_moment: 4.225
 S          -0.64576910576407   -0.27026867431767    0.25881360097572
O          -1.07460273582136   -0.26034776832437    1.63661750111873
O          -1.47726050878019   -1.12261713137338   -0.60863878526834
O          -0.83722720283993    1.17030821965209   -0.34307215624602
O           0.76080004496004   -0.60252413882849    0.08102458064616
O           1.40203136354603   -0.07833112930831    2.64529402162261
H           1.65840461391573   -0.30429174237415    1.73937704456305
H           0.44524094581824   -0.24809111338853    2.63235934031528
O          -0.12364658578856   -3.21062306677498   -1.65777233914519
H          -0.69836438005818   -2.54884318283240   -1.22375248852860
H           0.17263738149461   -3.79905313550170   -0.96179452561879
O           1.28189157054758    2.58145680894307    2.75587261347692
H           1.44808404637871    1.60808903780241    2.73262741982097
H           1.46118901378878    2.86164855412657    3.65462654810793
O           1.45710878109096   -1.16266812594176   -2.38558987208692
H           1.43018822002998   -0.88659809390564   -1.43895084368534
H           1.11346378868208   -2.07881883446668   -2.34965080831614
H           0.22841966755516   -0.42639614804883   -2.80442064106273
O          -1.22235481425608    2.41818756084523    1.83301023800613
H          -0.31912476105244    2.63710495754833    2.16191785082048
H          -0.99366465386305    1.78736473172691    0.44460306323448
H          -1.42503831520038    1.54002536612917    2.19002785024552
N          -0.78151295866990    0.01371622152204   -2.80326645296807
H          -1.28618291651500   -0.13876992284838   -3.67046929174032
H          -0.73408162602784    1.00080497060467   -2.55536087362315
H          -1.24062890317223   -0.48046422066378   -1.96343259466308
