    26
        -50.46815428  Gyration_radius:  2.47591726332 Dipole_moment: 5.893
 S          -1.03904282597774    0.45316970968352    0.05335426336722
O          -0.72744327272732    0.77721381186663   -1.34523865827039
O          -1.08306394341607   -0.99116456721185    0.24036547503354
O          -0.08364278929413    1.09041414920695    0.94979509609734
O          -2.44282314204765    1.03160102792907    0.33006568572421
O          -1.82296676690431   -1.52361948169315    2.72587900168221
H          -1.49527613620426   -1.42092281853777    1.80647327506653
H          -2.55951486855899   -2.13532391755498    2.68037100307617
O           0.57008538098003   -0.98559708849215   -2.87708804838388
H          -0.05802899972826   -0.43144472580180   -2.36689588661684
H           0.03700857671247   -1.62418059069251   -3.35261716115827
O           2.42506276818765    0.41689274008117    0.51186678652654
H           2.21283451240146    1.00025032467140   -0.80123822912025
H           1.58057677877917    0.72456934649927    0.91037667819284
O           1.39147702188720   -1.84069829165965   -0.35120088139032
H           2.25153963433508   -0.53933736870234    0.31993440962407
H           0.48639412833872   -1.67844276432242   -0.02263687975256
H           1.31782812236511   -1.75257812338311   -1.31395366597270
O          -1.99819973288986    1.14456947945592    2.84299294693472
H          -2.44627160635170    1.14308966402146    1.32807926758229
H          -2.00694102298867    0.18717548731831    3.05559354362169
H          -1.08679719697614    1.33368768472337    2.57413721560911
N           1.78109145186484    1.35139695808218   -1.76860589244481
H           0.73184734159464    1.30851590462805   -1.59925048482636
H           1.98002056837496    0.67616067157101   -2.50685840273139
H           2.08424600824647    2.28460278831916   -2.02370043746365
