    26
        -50.44860136  Gyration_radius:  2.46829085619 Dipole_moment: 4.501
 S          -1.20009040469639    1.82183077436991   -0.14067055091880
O          -0.10927921361684    2.08830358238668   -1.05628282628766
O          -2.28730451083377    2.72477522456616   -0.13164025816852
O          -1.73618133075234    0.40169725526332   -0.44026653875355
O          -0.60010308931093    1.67165740492654    1.28223164470906
H           0.41174173925195    1.72560181755035    1.18211625234406
H          -0.99757252669550   -0.21129992689713   -0.80341311912617
O           1.85955476936302   -0.99121066165624    0.62693746795824
H           2.54078641862133   -1.62891640185367    0.84243183303270
O           0.05274190297284   -1.15255316518207   -1.35826356091967
H           0.78909557296106   -1.15283852186450   -0.71061817220824
H           0.37839302047791   -0.64744353539495   -2.13498967268063
O           0.76411146272284    0.68434499108955   -3.14841137080596
H           0.27488343786881    0.90613761444012   -3.94200641946775
H           0.49332145455828    1.33094805680569   -2.46684537762648
O          -1.95450647848331   -2.35609361296264    0.38090763464231
H          -2.49106584846958   -1.57484312629011    0.21541988908703
H          -1.34332293019968   -2.40790993092619   -0.36210969252176
O           1.86877109779267    1.70104726684741    0.71476458443533
H           2.05407960800775    0.74125329603180    0.65082571515696
H           1.62258480253198    1.99779114881411   -0.17324269447081
N          -0.13717266238254   -1.15180872285257    2.28397696289521
H          -0.82885571164293   -1.71922961218531    1.78976809019425
H           1.12792612886388   -1.08265158695306    1.33504212173017
H          -0.50487590612808   -0.20757901586156    2.33893721331447
H          -0.04766080278187   -1.51101061221458    3.22540084447422
