    26
        -50.45515681  Gyration_radius:  2.42277509303 Dipole_moment: 8.588
 S           1.37437477999928   -0.97775052863405   -1.17074140370909
O           1.45713762702580   -0.00253586535438   -0.05925513153400
O           2.63303964887662   -1.24850094084702   -1.77491563202714
O           0.81542366333166   -2.29993142380434   -0.47404245426995
O           0.30447933130763   -0.59631340784073   -2.08288371062557
H          -0.93632042561995    0.24220643768626   -1.83957191486116
H           1.22725546622124   -2.33258612027755    0.41150359394281
O          -1.79024931831192    0.76540924394280   -1.69032742325427
H          -2.00124937574187    1.13828711692003   -2.54718691650584
O           1.43012443718204    2.55393817039221   -0.42327486188211
H           1.53316537261289    1.56522314240477   -0.40846980172915
H           2.22015771643895    2.90027417423492   -0.00595229450701
O          -1.78773939793145   -1.56876855778904   -0.00953346901690
H          -0.97863037445002   -1.96284858064995   -0.37809478885335
H          -2.11080570339655   -0.95818905947243   -0.68278006977850
O          -0.40657116364123   -0.08063291292838    1.69496039271040
H           0.37983825577888   -0.06712554418354    1.07845656254822
H          -1.04667052791647   -0.67619033425362    1.23680584957277
O           1.25852521750929   -2.32879129243365    2.15842890483245
H           0.72553295899481   -3.06745632917512    2.46044175881893
H           0.74834073462510   -1.52211477911812    2.33694606661754
N          -1.03153518388091    2.13701775077648    0.44988035037172
H          -0.86776049624798    1.32666984378193    1.12957134356780
H          -1.62741524346174    2.85992777360572    0.83548753955931
H          -0.08037881623810    2.49917020212497    0.17521082776453
H          -1.44206918306469    1.70161181089546   -0.42066333775036
