    26
        -50.44427726  Gyration_radius:  2.49736699171 Dipole_moment: 5.591
 S          -1.43765471989284    1.64251684793100    1.16943234651369
O          -0.32871763330956    1.17273767352985    1.95543287469139
O          -1.94888185474679    2.93077625901163    1.46269730452119
O          -1.02549675212987    1.55187814738339   -0.34188839742699
O          -2.57633709017544    0.59878749203905    1.22030715825803
H          -2.12533475783611   -0.27062751006639    1.03456541815648
H          -0.03544708697530    1.66148689536141   -0.45632263572888
O          -1.40336300983006   -1.60897819751202    0.53201043023560
H          -2.01045528336636   -2.34521779138042    0.62718628312559
O           1.32586718632741   -1.83869146555497    0.74844589481651
H           1.50589024105312   -2.63871156848396    1.24416264861471
H           0.35914831796227   -1.69815477342926    0.77348789376323
O           1.53283251623027    1.82127955262498   -0.63825290013834
H           1.90701043585063    1.39390931881602    0.19727607528519
H           1.78583433240914    2.74528087431672   -0.60871339433869
O           1.55432768395329   -0.74749326309496   -1.87560532186508
H           1.66806399750924   -1.21338240432423   -1.03597317016632
H           1.66613932929412    0.18899141658905   -1.66871986008781
O           2.24136571940055    0.64482315959365    1.54293213278383
H           2.12477337497522   -0.29301163665149    1.31435920246216
H           1.39710253414810    0.89378835173351    1.96183793076505
N          -1.26196861363683   -0.92819776657370   -1.93773460372868
H          -1.55213844134580    0.04262909078332   -1.90990093965334
H          -1.74029813410294   -1.39288616428515   -2.69784362134230
H          -0.25390116342234   -0.93472237020979   -2.12837111269687
H          -1.36836114829248   -1.37881013817734   -0.48480763680353
