    26
        -50.46651118  Gyration_radius:  2.46857326619 Dipole_moment: 5.083
 S           1.68318493895644   -0.48266150790441    0.14950090099312
O           1.14007564471377    0.88188511547115    0.04563035569122
O           2.14476805569781   -0.98249552625164   -1.11230323659419
O           2.87655812567537   -0.42937762205793    1.14807916406219
O           0.65874980410657   -1.34873158816702    0.75541161651594
H          -0.42835984575900   -0.54488435826039    1.60821728500506
H           2.53180743045476    0.09810530209098    1.90112341593932
O          -1.10325049510561   -0.05793070076696    2.15213241290480
H          -1.57000062198966   -0.72762858182814    2.65476730728066
O           1.41382684401224    1.19667466954618    2.65314323689783
H           0.56446623052855    0.82102732172143    2.91925256938459
H           1.27734101951489    1.46857812442419    1.72869782950652
O          -2.54707221490166    1.52307114005205    0.44570521489509
H          -2.07095123830805    0.95881152066802    1.08996328010483
H          -2.43133674577266    2.42379753420611    0.75175982146008
O           0.95441924825979    0.12670801913242   -3.27867689299075
H           1.44601093876754   -0.15364333183741   -4.05153539595698
H           1.42417229630748   -0.26802219717830   -2.51633299081249
O          -1.12808179983287   -2.16370143582415   -0.98036309692447
H          -0.36392215161809   -2.03671467060319   -0.37342792241062
H          -1.79261528844972   -2.64876233351634   -0.48839685752139
N          -0.96414355929372    0.48246866075356   -1.46098074744352
H          -1.14874572711406   -0.54428547014275   -1.38431289213723
H          -0.70828717550680    0.69478912835213   -2.42888729015572
H          -1.75319434103962    1.01665950693070   -1.05444760793239
H          -0.10541935235757    0.69626329172290   -0.87371948963872
