    26
        -50.46945868  Gyration_radius:  2.46103632782 Dipole_moment: 2.681
 S           0.12316968723943   -1.25691035054003   -0.10639177105502
O          -0.84799138117360   -0.89776115570672   -1.14699725690189
O           1.47428027363754   -1.30079425418952   -0.60147960604768
O           0.00092100283714   -0.30209618249529    1.01658652595953
O          -0.20802486755850   -2.66499085429249    0.43189457540657
H          -1.15672763734925   -2.74152074827604    0.72788307182453
H          -0.24049248752870    1.47446725591791    0.93073125352284
O          -0.12073278632623    2.39139619865909    0.61880539805181
H           0.75362130839044    2.63924174641205    0.93613914315396
O           2.36690920421279    1.00484442523524    1.09382579774858
H           1.57612372683962    0.42754002218446    1.08666737208161
H           3.07166779107208    0.46664133181906    1.45740031795682
O          -2.64578649486774   -0.22199119483589    0.75131015160447
H          -2.52259739693076   -0.34983347398169   -0.19894526857491
H          -1.73135596157263   -0.13176786167898    1.07873749938814
O           2.61432583138997    0.83966444789543   -1.62313653459458
H           2.38991913157517   -0.10007172513925   -1.45920381773425
H           2.76869227401318    1.17343370984825   -0.72012289615189
O          -2.64198634362565   -2.77754418149660    1.35531759699128
H          -2.87229836027543   -1.82948216418527    1.19052438877005
H          -2.61985311504407   -2.89753638380026    2.30683348023477
N           0.07956244476886    1.43159661629930   -1.85363872581489
H          -0.35461405312380    0.47284724768127   -1.68923632537591
H          -0.30069161561916    1.87600456711210   -2.68207530655536
H          -0.09553717432954    1.99606039952531   -0.98119838130773
H           1.13949698607447    1.27856254518497   -1.92023070272965
