    26
        -50.46945836  Gyration_radius:  2.46057927592 Dipole_moment: 2.688
 S           0.18104473910192   -1.25706791894755   -0.04473897080007
O          -0.68144196085818   -0.97387905904203   -1.19830795851256
O           1.57933925092242   -1.26447968726088   -0.38713967092936
O          -0.09903596753947   -0.26818098101463    1.01919132429077
O          -0.15771819108849   -2.65710618688014    0.50978513100039
H          -1.12944380106710   -2.75827534656435    0.70695537972032
H          -0.39460148024211    1.49762287342296    0.84616157330370
O          -0.27199168161021    2.40631276838827    0.51273381711680
H           0.55485945315046    2.69713853258304    0.91078350706004
O           2.19611627965544    1.13327051785030    1.30106155405982
H           1.43158045587526    0.52559030692316    1.23079081972647
H           2.87622123883485    0.63451428620123    1.75628407764016
O          -2.70112263197911   -0.29787267003816    0.46490099491018
H          -2.47839374135283   -0.45519830740934   -0.46235294273379
H          -1.82807855701768   -0.16368755417993    0.87940902180767
O           2.74147605802977    0.88423604838398   -1.36558423030505
H           2.53410258550989   -0.05730555631256   -1.18924153831720
H           2.78636081185746    1.25534659650340   -0.46510970140400
O          -2.67149955261684   -2.82589298330343    1.17572531104214
H          -2.91564842071411   -1.89474303691877    0.94686064911579
H          -2.74541629475668   -2.90667226242984    2.12873868133270
N           0.22692499174826    1.36837410322322   -1.88564953081236
H          -0.18656274120263    0.39847223737856   -1.73263931655392
H          -0.07848446565896    1.76930420786991   -2.76566412112080
H          -0.06119686208314    1.95458182127305   -1.05883952740148
H           1.29261049511989    1.25559727025903   -1.83411432327059
