    26
        -50.46838570  Gyration_radius:  2.46160324724 Dipole_moment: 4.931
 S           1.65284364772739   -0.30652428579421    1.37049057495127
O           2.20808962032063   -0.50994200276922    0.04240400979546
O           1.91020364718982    0.99492755766920    1.92546575064061
O           0.24883135800015   -0.70812159633710    1.42691619428239
O           2.39556193970574   -1.34458275020736    2.32351496382293
H           3.16991627262890   -0.85110969411116    2.57224346655314
H          -0.58365780392693   -1.63300999328578    0.39889598953432
O          -1.10287643507477   -2.13482786885890   -0.27934574012319
H          -1.42099195640851   -2.92541075750629    0.15808640456000
O           0.48490484901642    2.20229540302955   -0.01474908322797
H          -0.33005398618214    2.15509156744409    0.51001099562537
H           1.17702740252293    1.87411829101094    0.58024225266320
O          -1.50037326613390    1.25452106567447    1.67990830990097
H          -1.47702499528770    1.61947664883390    2.56529816384354
H          -0.85962682460443    0.50920813202928    1.67050265858707
O          -0.57394813430234    1.28206970046571   -2.28774260149389
H          -0.10316005503607    1.78908748110617   -1.59219416293231
H          -1.42947000704362    1.03079340513835   -1.86827650120290
O          -2.52442695188546    0.27866177192906   -0.75648472858439
H          -2.38757258389789    0.72639799222887    0.08985577657717
H          -2.20394540756581   -0.62585525221131   -0.62619660528585
N           0.65756577666061   -0.95739299604969   -2.00338306433735
H           1.13559028629802   -1.33969816138362   -2.81085471456592
H          -0.04696515501002   -1.60946385209407   -1.63076528503698
H           1.34247387495044   -0.76576603376083   -1.21365104193608
H           0.16108490734386   -0.00494377217973   -2.23019198260125
