    26
        -50.46983302  Gyration_radius:  2.43237956942 Dipole_moment: 4.342
 S          -0.51088126457438   -1.47118439030948    1.34448878036307
O           0.51165514484351   -0.95828971286427    2.23119085141166
O          -1.64515867830088   -0.60390185634836    1.15242064916719
O           0.06872123790424   -1.89513222065981    0.05925136917482
O          -1.05513655505693   -2.79348129519559    2.02578974394535
H          -0.27872565409648   -3.12300648248975    2.46606923568166
H           1.40157157632306   -0.90003349397577    0.06376695759330
O           2.07903816963561   -0.19039701833235    0.06595842147663
H           2.38278557026313   -0.15664358178211    0.97712147928393
O          -0.41170564391092    1.54907010138033    2.48834918907761
H           0.01424633455586    0.67261838841012    2.53118411220360
H          -1.34604306218444    1.35232220425788    2.37901941308503
O           0.43585402232477    2.04575654533385   -0.01822791228005
H           1.06572613086823    1.30356995775490    0.00021731860721
H           0.15842192450248    2.13336489025769    0.91709870009541
O           1.65897596053567    0.78348798437927   -2.48431599550445
H           2.14152821932337    0.39745711447419   -1.73680545524296
H           1.39198888668036    1.66034762731825   -2.18770013739324
O          -1.92685808865474    1.12585389821020   -0.86065305283768
H          -2.06137370112260    0.54593040955074   -0.08510571217157
H          -1.13890217144913    1.66557842311476   -0.61596614705922
N          -0.59244325374515   -0.64745195651966   -2.17627910707782
H           0.29146437124249   -0.15689423243746   -2.46475605265353
H          -1.00144550584367   -1.17289363500231   -2.93988444684345
H          -0.36904959437591   -1.27003881768446   -1.35761550148307
H          -1.26425437569028    0.10399115914813   -1.77461666061537
