    26
        -50.46116060  Gyration_radius:  2.53270718041 Dipole_moment: 5.605
 S           0.24251703296066   -1.85305333719383    1.51940747185940
O          -0.64756527146925   -0.70550718037242    1.71735726825995
O           0.33135360264767   -2.75069340559672    2.62327042255745
O          -0.49844451147945   -2.70723643202903    0.34586859419371
O           1.50862206584562   -1.44029001063191    0.93445665955126
H           1.79766504224485    0.10039109360391    1.70906006375218
H          -0.39066852570776   -3.57537786371325    0.71946926709024
O           1.46118015230210    0.95082877956155    2.05178991919045
H           0.54874905553770    0.73094468829792    2.28476597682277
O          -1.07149325173052    2.63259395964864   -1.03004042672418
H          -0.97628416151166    2.71236526284799   -1.98114785963666
H          -0.15808609129437    2.61106324508807   -0.66783549389992
O          -0.89727562699847   -1.38858159234306   -2.12079791126238
H          -0.01377629279575   -0.94575040515235   -2.07384658942858
H          -0.79942567731219   -2.16880987597605   -1.56103701346101
O           1.35743868085435   -0.22055773862309   -1.43227619772691
H           1.44339302906861    0.70512637299482   -1.16251615849311
H           1.50493315404102   -0.73777826997149   -0.61400739905554
O           1.43704011431910    2.30938759861534   -0.18019846528256
H           1.44516930961197    1.84326492582005    0.70385135182393
H           2.12874356966090    2.97056963377719   -0.13599828405790
N          -1.97360225801294    0.19526022480904   -0.32952669398114
H          -1.45323290102886   -0.14799778204382    0.53510418580232
H          -2.97385890070225    0.13529300395723   -0.17491970409785
H          -1.69068950470942    1.18207146719933   -0.54709798167043
H          -1.66240186434881   -0.43752637257917   -1.13315499213348
