    26
        -50.45676989  Gyration_radius:  2.57760223721 Dipole_moment: 5.485
 S           1.23728058275376   -0.07142429851626    0.00746943542260
O           0.34573076093536   -0.07775193622168    1.17477968827396
O           0.66128773818255    1.03938261548011   -0.95039554848787
O           2.56104584072837    0.41233535567760    0.38541468666625
O           1.22743960138282   -1.32233292797632   -0.71138142635476
O          -2.96176447903362   -0.77188212833005   -1.10688477996618
H          -3.52043349606456   -1.48880834268686   -1.41106381863664
H          -2.61832901152378   -1.05339902447675   -0.21774044199567
O           0.56904393513085    3.58339601427904   -0.01117728159537
H           0.45745746942812    2.72649819064105   -0.46701100465646
H           1.04188200037678    4.15214139196609   -0.62135341464510
O          -1.83833774765963   -1.67681177344780    1.09538051122791
H          -1.09771331318934   -1.05958717671175    1.23384409431856
H          -1.42413111318037   -2.47459170750523    0.71922518753817
O          -0.25196640867249   -3.48299359301937   -0.21255037125253
H           0.30206594346072   -4.14509927643600    0.20285469119279
H           0.33701995847906   -2.72866369541884   -0.41850649453001
O          -0.72333643595439   -0.41934754979339   -2.45748010099427
H           0.06481235593005    0.54340648369118   -1.62297420368833
H          -0.20646119814085   -1.19600063199911   -2.20802224947897
H          -1.60829647448539   -0.51173685654741   -2.01462402165405
N           1.49772059735246    2.05150857191856    1.97114287295758
H           2.21969774356224    1.50641041360138    1.37574446264370
H           1.81062739281083    2.30786151598823    2.90083272121211
H           1.15927403651689    2.86038805823642    1.40589420410039
H           0.75838371085317    1.29710229759190    1.95858261238373
