    26
        -50.44662367  Gyration_radius:  2.55258608598 Dipole_moment: 5.544
 S           1.51032539761574    0.34041918413851    1.88151734383053
O           0.12315283413006    0.73159164729395    1.72323286993649
O           1.80367332376741   -0.44143583413848    3.02494501701944
O           1.94141800411032   -0.38525283415165    0.57687750702307
O           2.39326034186636    1.59315682331053    1.84121763240667
H           2.18023923159235    2.11153231161235    1.00738359888344
H           1.37151102122973   -1.20257543047809    0.44086615759945
O           0.43923616253725   -2.40710579288213    0.07562510240460
H           0.97023591553697   -3.18454188904479   -0.10500127701490
O          -0.40747107262471    1.38606893646461   -0.80331656278182
H          -1.31560787164226    1.09875935553067   -1.00380152312147
H          -0.27387399774403    1.12949944856367    0.13003422109159
O           1.68772931368098    2.95131522476753   -0.24680582408876
H           1.29899713490654    3.76947113105766    0.07161139055920
H           0.95758967313558    2.43694171532263   -0.64593485353229
O          -1.79476288235980   -1.14421664585336    1.26751405615014
H          -1.22989948188555   -0.43519093397015    1.61932332464224
H          -1.18118703207132   -1.84425594851273    1.01280851081358
O          -2.78050142863814   -0.01421820702507   -0.94149461993833
H          -3.65472872656508    0.32531503180055   -0.74721197258826
H          -2.48272672684285   -0.47769244718918   -0.11965953135003
N          -0.32858039519249   -1.25826646879017   -2.12547689159487
H           0.05705761445711   -0.33103417061641   -1.96125262910703
H           0.11977886636240   -2.03897631570091   -0.82441364580541
H          -1.33788330153281   -1.15451349337152   -2.09203738073566
H          -0.06698191784373   -1.55479441819888   -3.05655003072839
