    26
        -50.46141413  Gyration_radius:  2.55182820546 Dipole_moment: 6.470
 S           0.22759089034594    1.29102962772751    1.49034061376604
O           0.61711600707437    2.53238756134974    0.85740622818677
O          -1.18453691942436    1.17931542494165    1.77869533301130
O           0.67036111834883    0.14532975036842    0.66405478182133
O           0.99083027200179    1.14785982540482    2.85645986695542
H           1.92293405391463    1.34563484292500    2.64147973754975
H          -0.26426119831166    0.98662751333021   -0.53514919927647
O          -0.89255309408707    1.27368804340716   -1.22419043337312
H          -1.14379040021114    2.16107611644966   -0.95690240608292
O          -0.29724377504734   -2.50960978300667   -2.23510764519289
H           0.04082002663733   -3.33187898685951   -1.87732990410633
H           0.43465694737709   -1.84747086024880   -2.13857431208294
O           3.11590466240253    1.82020978585040    1.38187522516755
H           2.34898170529808    2.32203370045432    1.04372517802412
H           3.25408502711384    1.09710432840266    0.76535302851222
O           1.50550434129393   -0.63421944982342   -1.74049397572157
H           1.26398958379908    0.14694292847608   -2.24482172201818
H           1.30431389099609   -0.41193114717803   -0.80852895202319
O          -1.41455151312450   -1.38443584687483    1.57403484016196
H          -0.45936295819020   -1.46242462075093    1.45609180768185
H          -1.50967432075921   -0.43301027435012    1.83092804782473
N          -2.13499190868579   -1.09297109297339   -0.92774391000225
H          -3.11415446168394   -1.22909103287853   -1.15248854176032
H          -1.51252893810442   -1.72823261577951   -1.49436951009225
H          -1.83230777025909   -0.10944827629708   -1.11919893045268
H          -1.93713125871420   -1.27451544207195    0.11445474352305
