    26
        -50.46797313  Gyration_radius:  2.47229250426 Dipole_moment: 6.423
 S          -0.15130186366308    0.38250550504141   -1.05775590673910
O          -0.12397712744880    1.05643619232709   -2.44588234953188
O          -1.56274417304933    0.32075598988846   -0.65538254780420
O           0.42946264414295   -0.94300304029752   -1.16301222281568
O           0.58418076254954    1.23010280398555   -0.11887661100344
O          -2.36249788094442   -1.90788511317502    0.58469540835070
H          -2.59722347112371   -2.65223320244409    0.02879432342547
H          -2.08911658947382   -1.18960490353038   -0.02449698211004
O           0.47208921596671    0.42392792244700    2.39508023153002
H           0.58433684530968   -0.54011971247715    2.19111780979973
H           0.71215150020130    0.85932821330896    1.54804912457201
O           0.33009287882556   -1.95983971309574    1.30912923782359
H           0.54076632607733   -1.68695667473656    0.39475685302178
H          -0.61318099618853   -2.18151029973123    1.27772345601128
O           3.04733568851356    1.52013826864159   -1.04873800451580
H           3.20684372376086    2.46186345528193   -1.12961572125432
H           2.17041144721689    1.42590748108702   -0.61878761807107
O           2.11623258011870   -0.01950014670874   -3.03649086004915
H           2.69554385473289    0.50780009513032   -2.44752026554918
H           1.80136960593834   -0.75456955779692   -2.48857163798713
H           0.73545019267630    0.72056102446974   -2.84358201409303
N          -2.01993455352120    0.60089062215762    1.89634852704425
H          -0.96953891463601    0.56281254199863    2.26942342891531
H          -2.48717494410638   -0.28831561656188    2.07408178109933
H          -2.54861187220834    1.38190355705242    2.26821047525124
H          -1.90096488966696    0.66860430773843    0.84130209467751
