    26
        -50.43714300  Gyration_radius:  2.4944744892 Dipole_moment: 8.488
 S          -0.85801393401332   -1.82844915714882    1.54927749515823
O           0.31194738430384   -1.86764530480119    0.71249951649911
O          -1.34792937911008   -3.05185509714530    2.05831491674537
O          -0.57235673201681   -0.81294189720852    2.69830971171305
O          -1.99906677381600   -1.10952193367925    0.75190162354005
H          -2.01319403274831   -0.13934044808317    0.99405517817244
H           0.20456036227401   -0.26759666323350    2.37214466582825
O           0.07472890155662    1.86820702178169   -0.55268343088661
H          -0.11947608745199    2.70190567169513   -0.98310796883388
O           1.19490275186006   -1.67312246740037   -1.88037701569729
H           0.93233795670915   -1.99416351248961   -1.00406842652580
H           1.87075129560591   -1.00187222000661   -1.70419045747972
O           1.32110696627176    0.53739485712682    1.60309618764129
H           1.73957567789035   -0.20345743294417    1.14694938596889
H           0.97575850893062    1.10347363986243    0.89547428428662
O           2.55913495232379    0.67273175050572   -1.15013621299797
H           1.75162244417206    1.19847826460073   -1.02913175578204
H           3.16859382317476    1.19468580604109   -1.67249725780386
O          -1.80058847015925    1.40594937267914    1.35186724323539
H          -1.10322014840008    1.68951407205316    0.72258411056658
H          -1.41889351957769    1.41286577822688    2.23377469490481
N          -1.03156063332859   -0.00112852762999   -1.88640968818267
H          -1.67313712788654   -0.48171552148773   -1.26415784021653
H          -1.51143311733142    0.19280894510957   -2.75557499364184
H          -0.39550297244146    1.11353299985146   -1.13211784073595
H          -0.26064807680790   -0.65873800628757   -2.07579611548112
