    26
        -50.46342247  Gyration_radius:  2.4806238104 Dipole_moment: 5.564
 S          -2.12718992705614   -0.16379744936871    0.93327186061767
O          -0.77446513745467   -0.56852192192311    1.34604655359591
O          -3.19180582834882   -0.76192736978431    1.66502174441376
O          -2.15518040805691    1.41009566467448    1.31079882989286
O          -2.24173160700335   -0.21291953713723   -0.51367011240603
H          -1.32927168352186    0.83501299642439   -1.27307781671196
H          -2.99676393949016    1.46980795389428    1.74990645868395
O          -0.71850964614067    1.51603483242542   -1.66753671874578
H          -1.26523660611081    2.07438118419999   -2.22132716184338
O           1.37579933456828   -0.36099084982244   -2.06765706259812
H           0.71901724316719    0.34202013665487   -2.16201740966045
H           0.88617873979814   -1.12085705290296   -1.69869439235092
O           1.76268431303488   -1.81764410338964    1.35195887837317
H           1.54042286617442   -2.44277394092759    0.65468227265031
H           0.91444945483000   -1.45989658585384    1.64652063068191
O          -0.22871945329581   -2.17343465221138   -0.77920260166079
H          -0.49820554754385   -1.61940545244390   -0.02492774493496
H          -1.02032418119413   -2.26276461214953   -1.31421500201956
O           2.82985115659012    0.28892265999183    0.05396789746287
H           2.51746882818907    0.03697593196558   -0.84841416626308
H           2.68279348569653   -0.51438195882670    0.59884993288563
N           0.66587517048587    1.53220510362857    0.66551783755656
H           1.66151864971288    1.11518604868235    0.45114553174579
H           0.21141962172891    1.79807913586927   -0.22723447786984
H           0.08887841789927    0.74686196965627    1.06005781735097
H           0.69104668231318    2.31373183759088    1.31022841121429
