    26
        -50.46928911  Gyration_radius:  2.43242920743 Dipole_moment: 3.554
 S          -0.69162666857020   -0.20896203089388    1.93686807290035
O           0.49039756796526   -1.01264516691789    2.19356433351643
O          -0.50235330762728    1.19791304886777    2.20332036425016
O          -1.22491669331275   -0.46956153663028    0.60005447756611
O          -1.82563324099265   -0.71387562002724    2.92438757422091
H          -1.59202031532144   -0.32518973801433    3.76177394532614
H          -0.18351467360545   -1.63951502540047    0.04639088058138
O           0.54641931884646   -2.19951008334673   -0.30283745895312
H           0.98762539352248   -2.50416062633652    0.49578239948030
O          -1.31389640082025    2.07797572275664   -0.30204796757696
H          -1.41006533568191    1.16904362547826    0.03188364464986
H          -1.08293168349663    2.58920771855429    0.47733786067221
O           1.98969913861960    0.91992481065687    1.24784913906877
H           1.70547365229630    0.09513805686397    1.69244323836897
H           1.28991913555052    1.53227442444288    1.51688418971902
O          -1.61372583903060   -1.06665236552763   -2.11368245830048
H          -1.11404692609155   -1.88624665889184   -2.07706871132619
H          -1.78511779626071   -0.82705006336171   -1.19220440907886
O          -0.14280022447322    1.16317666577698   -2.53564601007710
H          -0.75362514374768    0.40346558232867   -2.63292740226990
H          -0.56864728539871    1.71971116632850   -1.85310306407373
N           1.78185388377740   -0.00285289956797   -1.23701431111948
H           1.03394834333798    0.52996977991238   -1.81594431867822
H           1.39251854902010   -0.94958100884532   -0.99955018626442
H           2.65156100371092   -0.08079518213828   -1.75238456264005
H           1.93550558778736    0.48879738393203   -0.31412928996515
