    26
        -50.46923798  Gyration_radius:  2.48035247287 Dipole_moment: 2.941
 S          -1.26771953045423   -1.87715670744352   -0.00731029608335
O          -2.27253850061697   -1.47568728989092   -0.95912696635441
O          -0.08234439650596   -2.45660566582360   -0.62025684981145
O          -0.91899620778239   -0.83226932483163    0.94988385759444
O          -1.92381639721361   -3.02839538957256    0.87230415178340
H          -2.32298183317686   -3.56791323944957    0.19813120663078
H          -1.49445094637747    0.65615390191057    0.71910589209166
O          -1.73811897574039    1.61104793237108    0.60896757565899
H          -2.49209474733878    1.75855143384801    1.18145134441095
O          -1.07334985854662    0.67602550985827   -1.97793008990559
H          -1.46559829027074    1.28931458549839   -1.34419370378448
H          -1.49935335347402   -0.17919609020308   -1.78086559521553
O           1.40821247156715   -0.00533685427041    2.00664463979892
H           0.51685449769081   -0.36977537236052    1.84199458042193
H           1.34133254857248    0.93127778376514    1.76317817972437
O           1.51442711278642    1.18117990848269   -1.59082084659152
H           0.60197916434814    0.98519290455447   -1.90519979041349
H           1.39125526094036    1.75714512778220   -0.81773168656656
O           0.80705392543056    2.45487533649091    0.79168761420553
H          -0.14437275829781    2.21722224779254    0.72840656617908
H           0.84759807607585    3.39522357322081    0.96937487618380
N           2.08551474924255   -1.03970314863004   -0.33123671361109
H           2.95154781709725   -1.52744054983315   -0.52712276424450
H           2.02447418154842   -0.70595929530623    0.66935862044146
H           1.95834096986831   -0.17617091731996   -0.94994542590089
H           1.24714502063208   -1.67160042063834   -0.48874838663484
