    26
        -50.46931066  Gyration_radius:  2.42130009955 Dipole_moment: 6.625
 S           1.11329266476279   -1.03323721622695   -0.23732889632777
O           0.02033991304687   -1.41206842827136    0.66169372561165
O           2.30976743364993   -0.64803986444504    0.46100278551617
O           1.42595971816026   -2.27890306566002   -1.11688608592941
O           0.65757951286737    0.02069832413756   -1.15967464015188
H          -0.78657989081967    0.24345618852935   -1.67368887672255
H           0.56181683156188   -2.45283103818974   -1.54285173718839
O          -1.74884005812688    0.32565485588556   -1.93590025929421
H          -1.77682566070092    0.99890174746558   -2.61789599220689
O          -0.12860890344986    2.12356150962911    1.87047811549875
H           0.51798503175900    2.35708151712414    1.16453401911230
H           0.35882561359768    1.46636325184323    2.41609889834789
O           1.21095078539249   -0.00294136357856    2.80750658164144
H           1.76529737411001   -0.20091393879862    2.02628011203170
H           0.64120865314902   -0.77188087526402    2.88642872981051
O          -0.94867660065145   -2.35652211935982   -2.35065291586654
H          -1.40009790764603   -1.51045562076376   -2.19298439294440
H          -0.77630896538801   -2.40723529595062   -3.29368675216095
O           1.74132075334489    2.17091539782063   -0.02895932799237
H           2.52805649476693    1.79737234018239    0.37784313410015
H           1.37866905598306    1.43959106177774   -0.56495420868784
N          -1.77115791844645    0.43607830493948    0.81117018959172
H          -2.58293454123860    0.23100638301293    1.38276669569781
H          -1.09653588344714   -0.39802037985482    0.78464677122662
H          -2.03783299862103    0.61519831132361   -0.16819026328160
H          -1.17667050761538    1.24717002269137    1.23320458056184
