    26
        -50.46796614  Gyration_radius:  2.391274256 Dipole_moment: 2.398
 S           0.60476088846772   -0.23856019572282    1.70119704325946
O           1.53040002263862    0.79299934070894    1.22283900342932
O          -0.72469131171284   -0.03364630145450    1.17593400664685
O           1.12688959310637   -1.57313676556853    1.50903399357552
O           0.48771264320579   -0.02203545705682    3.26766880307894
H           1.32290681506434   -0.34030754596253    3.59524704244681
H           0.17017186235421   -2.21722075610213    0.28643321844987
O          -0.40485673568533   -2.43410735644922   -0.47579034365671
H          -1.28802089615831   -2.55683758109883   -0.12204986835933
O           2.71049951419512   -0.68136713062008   -0.70276341970468
H           2.44947750013793   -0.08945190568659    0.02485619845349
H           2.65277942926889   -1.56435044222196   -0.32692402659264
O          -2.24430064665571    2.15268477215827    0.22242479615191
H          -2.01042676152823    1.72576792133810    1.05585066878495
H          -2.68317666508047    1.44331014709316   -0.28645286173012
O           0.42035462934115   -0.44960848104289   -2.08814174885949
H           1.37098015201378   -0.53725661608229   -1.86601744449572
H           0.01912950818874   -1.21072755460529   -1.61753015023142
O          -2.52889650600299   -0.29202444488938   -0.87307365413980
H          -1.90114863351781   -0.38874247294982   -0.13563495648198
H          -2.04924172447842   -0.52930037833920   -1.67037699210166
N           0.19387895194086    1.83554519078712   -0.79381975677228
H           0.61862974468285    2.61399482820318   -1.28694863606216
H           0.17736385825315    0.96021297311075   -1.40581090445053
H           0.76382539885324    1.56551217464974    0.04883786784201
H          -0.78500062089510    2.06865406783936   -0.45898788844082
