    26
        -50.44393058  Gyration_radius:  2.64269793208 Dipole_moment: 9.401
 S           0.78544609636946   -2.72961142113975   -0.74326290395550
O          -0.51418407361116   -2.43218360262307   -1.28518136952889
O           1.50664493232192   -3.81977130889926   -1.28197892709774
O           1.63741850641883   -1.42284976730024   -0.79087798947410
O           0.64270788096869   -2.94577535838294    0.79566438119444
H           0.14227489095555   -2.17729301694390    1.16991055228690
H           1.13059984890606   -0.69538309908500   -1.29701602958844
O          -0.48808001263137   -0.81623974409891    1.84557404718927
H          -0.57902096432065   -0.96456777235564    2.78807753199840
O           0.42278709416625    2.76285542654561   -0.37620661231315
H           0.59707748560268    3.53882803283244   -0.91126826991388
H          -0.55503548165473    2.69568835147983   -0.30298712235517
O           0.32037520524705    0.46212285889178   -1.85870190919512
H          -0.58360137897624    0.20388672399847   -1.60617206812189
H           0.50399265761981    1.28613020393312   -1.36543884428649
O          -2.22341518013214    2.32960258866129   -0.38453792776007
H          -2.25530550225900    1.36690557082490   -0.53862784278253
H          -2.89031534710846    2.51850547118317    0.27664191043545
O          -1.94782786865863   -0.37643150766454   -0.46087920319255
H          -1.66847346024391   -1.21303309557574   -0.88342517984796
H          -1.61321065271664   -0.45821615820795    0.44580865671323
N           1.61346273823998    0.64884775694393    1.37006031478846
H           0.31308342588277   -0.19956742471783    1.71460267714216
H           1.34593501631644    1.49959576629568    0.88375902012924
H           2.27522710312669    0.89376828517462    2.09492695017478
H           2.08143704017875    0.04418623024681    0.70153614735557
