    26
        -50.46153741  Gyration_radius:  2.72872593786 Dipole_moment: 1.600
 S          -1.92688498092282    0.95169310987524   -1.15408299886836
O          -2.00394461739876    0.70778425046480    0.27863948335714
O          -0.55276657794955    1.07486299740655   -1.61465398643740
O          -2.73681604418625    0.04354067005534   -1.92930294714270
O          -2.54968589107276    2.41049995615117   -1.37681631459785
H          -3.48650177706766    2.24447781809639   -1.41544040686726
H          -1.94417059768308   -1.32346246875583   -1.39324124100568
O           1.02847450914177   -1.00908978442143   -1.07131377915900
H           0.70221341601674   -0.22393070225842   -1.54794646213826
O           1.59069882100109   -1.04128402925131    3.06395127803091
H           1.13489929506571   -1.77378124017745    3.48101127331645
H           2.13784796238213   -1.42919050019111    2.35096233600347
O           2.83411963364875   -1.94189017883432    0.81567281243491
H           2.25711477477581   -1.73482024500702    0.06127977411287
H           3.71846029708653   -1.67454311146167    0.56119287754402
O          -1.40145423921776   -2.10422354219477   -1.15062334566902
H           0.24192035703175   -1.59694959827589   -1.06619412615318
H          -1.66856616984404   -2.80401780415224   -1.75043896650035
O           0.50988138883147    2.91186008900666   -0.03197787706739
H           0.15929216207138    2.33375241579526   -0.74306095379677
H          -0.15258229461599    3.59271099005169    0.09337124199728
N           0.43361481249743    0.47756940202993    1.14142100748831
H           0.74341393832808    1.45393473478425    0.99924608133704
H          -0.61196946459496    0.49424188727697    0.98534874142757
H           0.81154751739891   -0.11015539407830    0.36524528073749
H           0.73184377926561    0.07041028806476    2.04775118760955
