    26
        -50.46737672  Gyration_radius:  2.46905507895 Dipole_moment: 5.847
 S           1.75728721059448   -1.03887020592598    0.12413808423110
O           2.28070525354916    0.32060819922842    0.12818083719097
O           0.87535199112030   -1.31576720842238    1.23566326169230
O           1.16708516581849   -1.37540338468042   -1.16359186944997
O           3.01357103896154   -1.98150138673991    0.30920418718145
H           3.64632806770434   -1.57363603868467   -0.27151844007042
H           0.30029583880014   -0.29276115386380   -1.96811010757617
O          -0.23464061513678    0.40165984011606   -2.43559529164030
H          -0.19273885876261    0.18746702423747   -3.36846181872765
O          -0.44928538296114    0.24687654446956    2.93849400362024
H           0.12976212948487   -0.29725521877342    2.36852304815357
H          -1.03389260090030   -0.37162918143237    3.38070980235627
O          -1.55032003681266    1.83939356062229    1.10199542508637
H          -1.20896868195110    1.33676900174054    1.87547665019581
H          -2.02966532699488    1.17834318012576    0.54317468335049
O          -1.21696560760683   -2.37885407659631   -0.02303448211947
H          -0.76236526127417   -2.59179465270085   -0.84262995346014
H          -0.50398247314503   -2.07265449746984    0.56774085555573
O          -2.37165699975819   -0.00307804895114   -0.61030794290358
H          -1.81335608079816    0.17683809627532   -1.37891933106126
H          -2.11714245618065   -0.90259356878380   -0.31629424585295
N           0.47403432555621    2.12744807621965   -0.44558346035189
H           0.15046142910224    1.75869409094085   -1.35330645658654
H           0.82914974223456    3.07267606797201   -0.53493583694681
H          -0.37513117825612    2.07976478280300    0.26079303705439
H           1.23607935759824    1.46926014826836   -0.12180464892868
