    26
        -50.46905288  Gyration_radius:  2.39548038311 Dipole_moment: 7.159
 S           0.47336715138157   -1.43018782441218    0.86736705986339
O           0.34943208269440   -1.46007132731021   -0.59493472392905
O           1.72489358755603   -0.89056764880109    1.31078352296005
O          -0.68399645834697   -0.68941408235970    1.40893133379248
O           0.38275364055455   -2.89739306218738    1.37818028126560
H          -0.52169082460018   -3.17897103076021    1.15033187476737
H          -0.28104033349047    0.88702395426459    1.33742530555036
O          -0.09896725912329    1.85635552641761    1.23970289342535
H          -0.23341254545022    2.23144346279422    2.11147039707624
O           2.62138158402218    1.46327250998282    0.48067102989922
H           1.82972296082019    1.91052181680521    0.80793598446786
H           2.56159252811037    0.57436500910440    0.87999739613953
O          -2.18197693984230   -2.76174813343018    0.71061596261165
H          -2.35551640895700   -2.61215965556632   -0.22318273418624
H          -1.87677117733999   -1.91326293068755    1.08262520874080
O           1.72969145689573    0.48790731899426   -1.80942060131815
H           1.37088156569052   -0.35738339462788   -1.46563246087047
H           2.27612606512104    0.85435703156117   -1.07036895225640
O          -1.90497916675404   -0.27107315147747   -1.08854144829864
H          -2.17628121990409   -0.13351452456631   -0.17447315348438
H          -1.07214642599585   -0.80722457500210   -1.01516608890216
N          -0.40332862597673    1.86691943657737   -1.48111951197522
H          -0.60935487023925    2.63478128270820   -2.10906979239809
H           0.54007127371578    1.34598496486891   -1.73517319746641
H          -0.31682870090699    2.17703251809291   -0.50137305314926
H          -1.14362291964316    1.11300650901609   -1.49758254232622
