    26
        -50.46908606  Gyration_radius:  2.47592504226 Dipole_moment: 2.329
 S           0.99456060958179   -1.70567297368946    0.70710417717027
O           0.85924169770703   -2.03019847532821   -0.70882103467739
O           2.34715931307327   -1.52291914692606    1.14667740923352
O           0.10007010593887   -0.61065677216687    1.07412905285449
O           0.41844528373842   -2.97378145585403    1.49956789401390
H           1.19669427244675   -3.41931424707048    1.82044084632889
H           1.24306623360675    0.51919259152853    0.69565331485829
O           1.93121362284615    1.11941963034236    0.33322725623280
H           2.75502853054476    0.68967097612722    0.58207806115159
O           0.38234762346297    3.32724279171962    0.77595394031143
H           0.51626108982571    3.93514506729020    0.04762990489244
H           1.07132782688269    2.64356163995429    0.69748447311996
O          -1.74156191598509   -2.18198706750474   -0.48104379897656
H          -0.78071020316590   -2.27017236609065   -0.67004867092000
H          -1.79879699337691   -2.23278489492082    0.47642517122785
O           0.77511728182707    0.28856298468974   -2.01963543179758
H           0.89048481938810   -0.64153394926788   -1.73439201617825
H           1.29565811303035    0.79725590487647   -1.37470770424903
O          -1.62182867630913    1.50501859515608    1.06480807582550
H          -1.01215831078808    2.26882903974127    1.05577850461320
H          -1.08467079142602    0.75419380837770    1.36513116602547
N          -1.77076372883682    0.36429672117684   -1.29297993723578
H          -2.46507324814199    0.66119944709586   -1.96879388012705
H          -0.78445808155508    0.43093241384112   -1.68280083800874
H          -1.81156208408656    0.93113519276072   -0.38910510933439
H          -1.90509238028368   -0.64663541581132   -1.01976083637943
