    26
        -50.46078456  Gyration_radius:  2.52760564989 Dipole_moment: 1.382
 S          -2.00305819434667    0.08212664425915    0.27841065212687
O          -1.54636279321206    0.26638702432138    1.65537046981050
O          -1.28426931639204    0.93315363531246   -0.64406792101936
O          -1.97994482411331   -1.32260693502194   -0.09090065979961
O          -3.51308432013387    0.53719460189715    0.23401934850733
H          -3.95583993233951   -0.12549438678159    0.75493595029796
H          -0.48153428238028   -1.81259865383235   -0.01211806417910
O           0.49110795377055   -2.02338038735322    0.03770022102203
H           0.57653374377096   -2.95247054175788   -0.18428657806380
O           0.99058969627301    2.43340558369965   -0.37333983387927
H           0.07410560754363    2.18894161012549   -0.58878580972182
H           1.53019967786333    2.16615088826244   -1.15469575319158
O           0.05464233678300   -1.66062803268920    2.94923866243010
H          -0.70332656349873   -1.08623795059512    2.78047171751681
H           0.20485772087583   -2.13777668300294    2.12696073286058
O           2.23272016720702    1.35013642281683   -2.46161394694536
H           2.21051851377606    1.78412182481635   -3.31526371441789
H           1.56922802893856    0.61937537522414   -2.50654338157134
O           0.29116992557721   -0.45242433127189   -2.32369975517320
H          -0.40187095102712    0.05928559683336   -1.86503191634055
H           0.53643009635257   -1.14770315900485   -1.69918509944749
N           1.05244679515867    0.45832311930582    1.28995365907176
H           1.18922823830896    1.31992668130501    0.64263893066861
H           1.22345283767816   -0.41916959274426    0.78588612351725
H           1.61642979407203    0.48713866782421    2.13483024156488
H           0.02563005350468    0.45482296804741    1.54911573434473
