    26
        -50.45891183  Gyration_radius:  2.41880436604 Dipole_moment: 4.836
 S           1.67310968805382   -0.66990827907032    0.67179699380798
O           1.43433095021612   -1.80964194356332   -0.20925295426226
O           3.03163124157079   -0.25381270138675    0.76706380703251
O           0.77522020935398    0.44219901804217    0.25749467024830
O           1.16071330969100   -1.08233427463576    2.10580643334888
H           0.27960953226188   -1.46138298949569    1.93381727972513
H           1.86736153022931    0.85071843744882   -1.10195153372056
O          -0.50545613271465    1.53138729159219    2.31218027190088
H           0.07274785431905    1.24483289380352    1.57473848762244
O          -1.21115483691860   -1.34423696453213    0.88331884351424
H          -0.64871113970556   -0.67762012727869    0.46259007978154
H          -2.03424694951203   -0.88772365280355    1.09935980860534
O          -2.81565151390214    0.93955981094538    1.07264550904634
H          -2.03064151847885    1.23507719507031    1.58924424277063
H          -3.51830370089983    1.55985152215923    1.26970217543083
O           2.33293201501911    0.68936682037722   -1.93924135558068
H          -0.19416980423634    1.04688937430761    3.07968491161576
H           3.19421531238239    0.36119305631641   -1.66823068603728
O          -1.41745256224807    0.91597849524454   -1.32505641996520
H          -2.10929276110197    0.84850215469488   -0.64320858246404
H          -0.62866200456725    1.19918802233209   -0.84084322414029
N           0.23343110688479   -0.95256816342486   -2.30294548724451
H          -0.57883198673510   -0.35001779839510   -2.01276739191900
H          -0.00911887244904   -1.59982229485567   -3.04482293761267
H           1.01867800137466   -0.31930362936707   -2.56068730392697
H           0.62771302223890   -1.45637127342959   -1.43043564727222
