    26
        -50.47155230  Gyration_radius:  2.43053299534 Dipole_moment: 5.673
 S          -1.07816664316039    1.13053599609437    0.79061817704032
O          -0.20441754276615    0.93404213003354    1.93888162519383
O          -2.02616432482701    2.19606037818522    0.94251905080461
O          -0.07427998077672    1.57069798422734   -0.40083083301726
O          -1.63408651361522   -0.12356522678926    0.30601567437674
H          -1.16071811110001   -1.77097231874276    0.55537737058291
H           0.20929967057917    2.43672605012937   -0.03292357457834
O          -0.57112762165572   -2.55268937748395    0.53787135251855
H           0.17718294538450   -2.28780613170259    1.10078101979595
O           1.38201046580973   -1.08406719630181    1.77518216686072
H           1.83793473617932   -1.15023001585299    2.61543410028421
H           0.74695645956083   -0.31905919269814    1.86996887533820
O           0.17429148775871    3.59667852006674    1.21720858600401
H           0.49795362093565    3.08163499932420    1.96396866608120
H          -0.79082386687501    3.44895729537955    1.22461502351624
O           2.00576532847924   -0.22405964934855   -0.72844026007764
H           2.01888519688752   -0.57579120753844    0.18146065114552
H           1.38003539934939    0.51947912497336   -0.69444141558698
O          -1.52871432000786   -0.07121039240661   -2.30792707248845
H          -1.74498811719437   -0.07589453726759   -1.34594783199391
H          -1.16311487637094    0.80164874046749   -2.47093569768384
N           0.32009042638262   -1.92187988083767   -1.83973444704068
H          -0.42764522563301   -1.26883889073654   -2.19994577532254
H           0.58004776772943   -2.62211700833158   -2.52414924442191
H           1.13604551122710   -1.31597553742518   -1.53959530196763
H          -0.06225186229470   -2.35230466546444   -0.93503088534297
