    26
        -50.47027720  Gyration_radius:  2.39663522783 Dipole_moment: 1.902
 S          -0.06251098128739   -0.59142020039767    1.79808577671863
O          -0.06542858872935    0.85918594852256    1.58723456131757
O          -1.28061721264689   -1.07930258599552    2.36083392488099
O           0.26431477987461   -1.26228355941409    0.51705145806840
O           1.12116672397902   -0.91129275413817    2.77030070276703
H           1.92168991740059   -0.67152825302072    2.27783783991938
H          -1.37638578352680   -1.54333913955433    0.05318339862710
O          -2.32218759289865   -1.42651919491871   -0.16170040373907
H          -2.75925159316552   -1.60929294049088    0.67626136228087
O           1.68265314880651    1.89011427747058   -0.19514700247378
H           1.08181134068495    1.65991340535958    0.53747871554249
H           2.39546271732550    1.24384378160600   -0.13456214965521
O           0.16578260532568   -1.09753524258682   -2.20464553432692
H          -0.62819067376829   -1.59290417411057   -2.41570518684311
H           0.28911331134260   -1.19247835529950   -1.24496080838660
O           2.77954216007998   -0.59472280368132    0.63526368114424
H           3.38560508747093   -1.29070760040387    0.37398224071144
H           1.87592587211392   -0.90522800964751    0.40631730009569
O          -0.09840174698537    1.58514054257345   -2.16585459465458
H           0.64870989067222    1.84065898293157   -1.57680228383274
H           0.07847342660147    0.65199756021844   -2.40388391686421
N          -1.85241810605309    1.22297101942916   -0.30053374061649
H          -1.21540514651958    1.20912810267855    0.54119103919462
H          -2.58851399034460    1.91199847151737   -0.19464951770470
H          -1.20658319009627    1.44155087600521   -1.15450051163628
H          -2.23435636562899    0.25205183535175   -0.38207636051485
