    26
        -50.46851029  Gyration_radius:  2.45279694131 Dipole_moment: 4.997
 S           0.98411961388337   -1.75588201939982    0.49524934778245
O          -0.20629651421300   -2.18793560991844   -0.22665939547717
O           1.83465118044146   -0.89578618284320   -0.29666346528870
O           0.64045265556962   -1.20238021748249    1.79706092291562
O           1.82497009020652   -3.06504935724372    0.78444128672004
H           1.21231562755365   -3.58285790382758    1.29559869069988
H          -0.67548156289004   -0.29702130621121    1.66234679923736
O          -1.42921138969907    0.34640477751893    1.62431645848990
H          -1.77679408017828    0.39513791758731    2.51646260690068
O           2.26987313467921    1.03562531347920    1.51687730055570
H           2.35757487692781    0.39265872859821    0.79162153459271
H           1.83508708111253    0.52787647006894    2.20994386956581
O           0.17083707778325    2.22298401656106    0.28699247972849
H          -0.45558935718199    1.66298375466721    0.77057213579650
H           1.02319746161111    2.06057852451831    0.74077849961067
O           0.98114058225312    1.03450045863532   -1.97727290442490
H           0.70361984875032    1.64410639024539   -1.25435147054483
H           1.54473000678649    0.37913679617056   -1.52873571460986
O          -2.71305457205699    1.10157941532596   -0.64755931702339
H          -2.43496552242106    0.75821773118098    0.22186400496788
H          -2.31302564211572    1.97331718693693   -0.71849738753363
N          -1.09474842408410   -0.52118368152004   -2.03833802530178
H          -1.38762178798856   -0.95137306324880   -2.90784676161888
H          -0.25035802761844    0.13737826921017   -2.17198725969986
H          -1.86520032877135    0.04264067051556   -1.60462438664609
H          -0.78022206832294   -1.25565706944815   -1.34158984937988
