    26
        -50.46471283  Gyration_radius:  2.46121113653 Dipole_moment: 3.081
 S          -0.79297001114017   -1.50089080112716   -0.08221527407475
O          -1.98441303629656   -1.55482749239432    0.72104938268630
O          -0.65159867030259   -2.54915112618749   -1.07693358702852
O          -0.83468798421786   -0.17004579886267   -0.93723889362998
O           0.43398325451490   -1.38253441839067    0.73336166997333
H           0.76249091348825   -0.07417842662368    1.58439601136365
H          -1.01028083334328    0.61519811673386   -0.32765562758179
O           0.95312070595215    0.79472187534325    2.02524558642805
H           0.99196738485805    0.61449995290727    2.96530538711596
O           1.58218681691763    2.15374113820518   -0.35207344597530
H           0.72389825278260    2.58890585930543   -0.34263170908177
H           1.64190590930174    1.69505703688478    0.49787117166896
O          -1.18803057773694    1.79198278953265    0.69271780029294
H          -2.00304548136070    1.50253611267059    1.15932738781147
H          -0.46426900725373    1.60264816575262    1.32041732034675
O           1.34621763567645    0.55718621798668   -2.49866036751384
H           1.59835237695185    1.20368364905677   -1.80211123362186
H           0.38917977868057    0.45946060767245   -2.39554990564407
O          -3.13772960776163    0.48327930001612    1.92997795301616
H          -4.06033374501389    0.45419789521493    1.67241917953514
H          -2.73814284469559   -0.34551399705313    1.58174397900677
N           1.74189861594316   -1.80228101610675   -1.43959220911162
H           0.78593629797080   -2.27165625366864   -1.57119726316169
H           1.73602077741337   -0.87241809901042   -1.96872568111224
H           1.64809160924830   -1.59732492891263   -0.41810433828456
H           2.53025147944363   -2.39627636898901   -1.67114328341270
