    26
        -50.46754621  Gyration_radius:  2.46460675639 Dipole_moment: 6.553
 S           0.44487387778217   -1.69898250233071    0.48223988080458
O           0.09019583129155   -1.07827618017016   -0.82041473602448
O          -0.28160620619107   -2.90371350897780    0.71948461493331
O           1.96100442605096   -2.01745224690542    0.39807843028001
O           0.27706781247965   -0.68214388534006    1.53465497599891
H           0.68335246137737    0.81279171721476    1.45331389234624
H           2.41802714538324   -1.14036364327942    0.28303915786911
O           0.89557309855495    1.77753201737586    1.28179874286151
H           0.89108605068482    2.20440068564626    2.13953158248387
O           2.92284962040712    0.36852995013778   -0.06389468242692
H           2.40143700747031    1.01169639742961    0.43909602968712
H           2.63921430476016    0.46099241465425   -0.99448965830440
O          -3.31631515380289    0.77916919731086    0.02338797140415
H          -3.95372926006804    0.38795972357375   -0.57602285717401
H          -3.03138110846362    0.04778663062357    0.62765712321592
O           1.69554609681513    0.18853735186296   -2.48259992419026
H           2.15511742485986   -0.38689403146590   -3.09570378995789
H           1.09453352615515   -0.39085354336191   -1.96334699253421
O          -2.31130348407226   -1.21073537538045    1.44473333443015
H          -2.12036284015515   -2.09471718235556    1.10620583354862
H          -1.42815880642144   -0.90201355751657    1.71671380006647
N          -0.83495752584914    1.32633897560887   -0.74367541049126
H          -1.85653410017945    1.27251444174346   -0.49301439317556
H          -0.67254740699509    1.78216007788238   -1.63573434179766
H          -0.28217046859700    1.77787541211746    0.00991824602174
H          -0.48081230328136    0.30786067389853   -0.79095680987435
