    26
        -50.45584688  Gyration_radius:  2.48238955417 Dipole_moment: 8.751
 S           1.60206142206805   -1.86666682173243   -0.19848659746255
O           1.47985289701345   -1.20429816147811   -1.50506061012779
O           2.11908738478432   -3.18860279809460   -0.21999823570100
O           2.61882602133377   -0.94845037774861    0.61473349661345
O           0.31952553235516   -1.73321827220439    0.52556412065871
H           0.25042451213705   -0.65504053807711    1.60361968711813
H           2.36533822624121   -0.05746658980311    0.34537095329597
O           0.22754838606808    0.11292900462501    2.25968825213061
H           0.59686346179934   -0.23578967776608    3.07219287269840
O          -0.55511274600101    2.21918738039135   -0.95663359343103
H          -0.47381838169519    3.10661473402028   -1.30822752167599
H           0.26874891378869    2.03218686940711   -0.45986322014650
O          -2.16596836927785    0.91382684244550    1.05918219124683
H          -1.77755500461162    1.48076518336035    0.38085998326068
H          -1.44285950032540    0.69253225056672    1.66467807676889
O           1.57583197244717    1.63929665927967    0.60353497151986
H           1.07244393817530    1.15309705844656    1.30721166302397
H           2.19806002415898    2.21361490888003    1.05276807120113
O          -2.24303060969703   -1.48266379291084   -0.19376102361976
H          -2.45064364075866   -0.69135018921937    0.34737173267003
H          -1.41477982311808   -1.83564699612032    0.18522202144147
N          -0.85048125019650   -0.32153370489008   -2.06318697838072
H           0.14139031892068   -0.72130278504186   -1.85749936436901
H          -1.09680832794648   -0.47354859376914   -3.03423657502335
H          -1.52589172735880   -0.82957490067817   -1.39528163144932
H          -0.83905365030475    0.68110326811316   -1.82976274226274
