    26
        -50.44954301  Gyration_radius:  2.4878351093 Dipole_moment: 6.129
 S          -1.57751499278691    1.92890927088222   -0.17307825672822
O          -0.19971501957878    2.25720982561427   -0.48688215686097
O          -2.56877732303510    2.75242759272864   -0.75813293012875
O          -1.76916228186488    0.43814012999470   -0.59360369657673
O          -1.77140015104748    1.87296310227299    1.34533965630477
H          -1.11661033748226    1.19413564426702    1.73659446590029
H          -0.99704848092548    0.23999041657871   -1.24277146015008
O           0.17307626615587    0.01417343642789   -2.14253509506443
H           0.42256608103193    0.93812040128328   -2.24216471651660
O          -0.05086536029641    0.21124105531741    2.18925506128864
H           0.77600097304139    0.61703578929500    1.86294982196156
H          -0.10980331362743   -0.67252318142747    1.77256430083959
O          -0.10953070615497   -2.27181885283696    1.05922025539390
H          -0.46287553421935   -2.92113686648484    1.66924479510519
H          -0.66956494228025   -2.31843096397659    0.24944432801081
O          -1.61804895624004   -2.26569685955447   -1.15599559812830
H          -1.06071979827713   -2.00083873441291   -1.89438420655255
H          -2.15947004424324   -1.49352995891793   -0.95062121547074
O           1.90343641760465    1.61344913071673    0.94012087874154
H           1.16641495415930    1.90661763138087    0.35311816848441
H           2.23240695050014    2.40646765079159    1.36633517605653
N           2.00271503552965   -0.94121551545409   -0.53701092409663
H           2.29964399797774   -0.12992680474048   -0.00390375202353
H           2.82451636296230   -1.39892913960837   -0.90764549616009
H           1.54028586082931   -1.58054061245582    0.10119167297307
H           0.90004435226624   -0.39629359767990   -1.55664907660563
