    26
        -50.46797314  Gyration_radius:  2.47230715786 Dipole_moment: 6.423
 S           0.47036914323938    1.00027665860279   -0.25722232491582
O           0.79916674612036    0.97812363645048    1.17431139437875
O           0.88533297552276    2.39286266758142   -0.77716608235581
O           1.20514365246208   -0.01620818217118   -0.98675098726781
O          -0.97610077860791    0.85738441368288   -0.42501977424406
O           1.81975774789848   -1.29651742963986    2.13802424944893
H           2.76216807872593   -1.42951332030028    2.02691510746001
H           1.61744606724280   -0.42981097044296    1.72612219761201
O          -1.98213390075460   -1.34947903225862    0.62381019485403
H          -1.83093461150247   -0.52727109622765    0.10826768982449
H          -1.24800322883466   -1.94284686697868    0.31959120402254
O           0.36235547724152   -2.35213509403711    0.00744752874169
H           0.89344336727184   -2.30263494426195    0.81700198839058
H           0.67670818036982   -1.59867168319561   -0.52958408057581
O          -1.52833337721805    1.17800630363957   -2.99567134181554
H          -1.40042359255831    1.00586861558347   -2.03821076667948
H          -2.17134449782577    1.88619586428356   -3.05752339039915
O           1.12235832286628    1.53963857049399   -3.17317887914105
H           1.03287932165901    2.23334731764027   -1.75816253259704
H           1.39063841248260    0.70904230343930   -2.75149880705553
H           0.17263591255137    1.42297427888949   -3.38519987709662
N          -0.82862614908208   -0.39051912166669    2.68293988229112
H          -1.44244812394540   -0.87439562779601    1.88728936920950
H          -0.25209400573113    0.32353022275956    2.14479384344642
H          -1.38607920048162    0.04389955467815    3.40977528982069
H          -0.16388194911396   -1.06114706876191    3.06889890463667
