    26
        -50.46832473  Gyration_radius:  2.56128949401 Dipole_moment: 4.106
 S           0.65545342314179    0.96098695943579    0.20870395561367
O           1.73445654468084    1.85895826801294    0.85787408412085
O           1.18985598001896    0.54810950093081   -1.08230702640388
O           0.46489837691600   -0.21192539924633    1.07917536736667
O          -0.57916295460611    1.72151515895006    0.09161892548176
O          -1.45028332203483    1.09985500379432    2.49097012093434
H          -1.38621287207453    1.41601562521766    1.56648858010729
H          -0.90830165112305    0.30106864224986    2.47805231058543
O          -2.00206325265198   -1.91949275511961   -1.47235613180872
H          -2.78334288078184   -1.75958280322905   -0.94041289499963
H          -1.75415047471037   -1.03822112544913   -1.86234886391169
O          -1.20593267757960    0.47593930077791   -2.20556839615435
H          -0.23845782530683    0.46328515188139   -2.08766309405567
H          -1.47095841977976    1.10694328517369   -1.52059009442807
O           2.23863563214051   -1.68546152171652   -1.96671631705175
H           2.03297061771751   -0.78030029391593   -1.63671805800614
H           2.12977392593796   -1.64715165791330   -2.91891926499686
O           0.50379057427968    2.83007173618944    2.93646125658552
H           0.15987302214365    3.68839897663108    2.67955938465997
H          -0.27501452747073    2.21993555761246    2.96752156935418
H           1.34253882635556    2.23474361414684    1.69302582092987
N           0.31853339322732   -2.41000646363845   -0.26660520846049
H          -0.62148808417334   -2.35175227125215   -0.74059194812646
H           1.08184731761500   -2.33028648407655   -0.98376112855551
H           0.40901931812015   -1.53518863638055    0.35173746472601
H           0.41372200000253   -3.25645734909166    0.28336957649541
