    26
        -50.44596247  Gyration_radius:  2.43103054686 Dipole_moment: 3.180
 S          -1.40201198619281   -0.04411192376662    1.04205693314877
O          -1.17248881887259    0.52686155384928    2.33743042324922
O          -2.68237303940085   -0.58668635932207    0.74928589734174
O          -1.04304049449351    1.02000779230351   -0.02636479556910
O          -0.36245390835758   -1.16643413805698    0.79230612778487
H           0.56532856881048   -0.76982662110259    0.66974921573946
H          -0.63279896376695    1.85700754902558    0.40182044547883
O           1.93365707697805   -0.23317386169085    0.22021605340428
H           2.34962482222888   -1.08607229053186    0.01708963225493
O           0.71114694544609    0.19481362245601   -2.08077013782072
H           0.43867301075821    1.11331537840383   -2.12334666376053
H           1.59901521071154    0.07961275139773   -0.66180158937303
O           1.49171379324805   -2.59706694977730   -1.05978221945170
H           1.31666417060057   -2.08745053321545   -1.85652861627257
H           0.66674248171172   -2.61975863864396   -0.56500077463179
O           1.39784609672363    1.34395207980564    2.51967698197479
H           1.85429173975451    0.79065661130527    1.87268713811248
H           0.53955524879847    0.92007126240603    2.70339534138939
O          -0.00538388327889    3.03138350378619    1.10946195566449
H          -0.65825407426359    3.36093145789079    1.73178505108860
H           0.67318945392849    2.55346994388511    1.66180724051088
N          -1.60030544805548   -1.21161687443031   -1.89092602518750
H          -1.59880186313103   -2.22024821892083   -1.99214942303088
H          -0.13515801032633   -0.32078422316389   -2.00155932535902
H          -2.23833898645873   -0.84732006156725   -2.58920007401864
H          -2.00603912281300   -1.00153282257936   -0.98133879264725
