    26
        -50.46017524  Gyration_radius:  2.52001835306 Dipole_moment: 4.712
 S           1.54975239680497   -1.30766050442299   -1.11759862869171
O           1.39616760721840   -2.02726529427929    0.14352797106379
O           1.25003977460958   -2.07226158634509   -2.28172555877777
O           0.75518531045550   -0.05606100979283   -1.06409726893316
O           3.05410386659462   -0.83383017193183   -1.16623786481048
H           3.19392247991689   -0.41395802097281   -0.31411963700766
H          -0.66674137420784   -0.89797863736571   -1.40434847360081
O          -1.51182520467710   -1.39014177367476   -1.40873489338282
H          -1.33780643130019   -2.14630381464629   -1.97416647623844
O           2.01821500165571    1.00883230371832    0.92874610599502
H           1.49743371161907    0.65996032870047    0.16853200243555
H           2.14956907675831    1.94376119612798    0.75512894822854
O          -1.43414947954588    2.66462838740975    0.79194480566512
H          -1.36806290949537    2.35679672772556   -0.13951036161020
H          -2.21543735251064    3.21526412004950    0.84342352290873
O          -0.32684185880113    0.76614809798093    2.33947405313151
H          -0.78773234318154    1.49546001779452    1.87731588973708
H           0.60442360076296    0.83907002382281    2.05358317893732
O          -1.26246499561753    1.65327051979067   -1.69002196878625
H          -0.41199091263177    1.19286202426396   -1.60183944547335
H          -1.90287431176239    0.95778482021029   -1.86593264794945
N          -0.88051896250218   -1.53245052299849    1.24270517555201
H           0.09306796505602   -1.80941826207090    0.88610484647605
H          -1.24367711466515   -2.22770832599339    1.88506104805303
H          -0.75448597273258   -0.57658175070492    1.72636112528423
H          -1.45727158778926   -1.46221889239683    0.38642453178498
