    26
        -50.47105793  Gyration_radius:  2.4516995963 Dipole_moment: 2.716
 S           1.01421446247142   -1.77246756823769   -0.27397823754173
O           0.86510863341619   -2.04311131289725    1.14162766880951
O          -0.22225534978591   -1.99619033958387   -1.01588730682025
O           1.57134831752849   -0.46158615143069   -0.55306404696932
O           2.07106637262417   -2.82034053332178   -0.81578741812419
H           1.86335175544416   -3.61696247198454   -0.33763064882457
H           1.29115787665200    0.30189765158310    0.87619504552467
O           0.97527425006230    0.71482694667189    1.71124817698908
H           1.06880072728030    0.01939307532866    2.36777832319229
O           0.52637248008590    3.13021123122859    0.40718594834312
H           0.90419753640815    2.47172433543424    1.00718331506341
H          -0.40348889510771    3.19378815838653    0.63787093317335
O          -1.78015228623711   -1.83039862275706    1.32006221974002
H          -0.81675838756803   -1.96041752076790    1.42938135675095
H          -1.96820997185774   -2.22002321865064    0.46192637272210
O           0.94470667905917    1.80260069787452   -1.92796992626052
H           1.48238216011861    1.06547232840604   -1.59502392945533
H           0.90459297111529    2.44657761450717   -1.19099352273004
O          -1.65745525069180    0.82710081681622    1.05862857977303
H          -0.73965041393740    0.90211446013329    1.39340882145080
H          -1.91477459338672   -0.09156373659625    1.29299720237845
N          -1.22022103358505    0.39278979392067   -1.50141966058186
H          -0.84906247912187   -0.59203280096592   -1.43408714201675
H          -2.00009082626131    0.44786795700163   -2.14677860866551
H          -1.50382197245943    0.66770407037301   -0.51034408508478
H          -0.40663277226661    1.02102514953348   -1.80252943083222
