    26
        -50.45761165  Gyration_radius:  2.38652992722 Dipole_moment: 8.387
 S           0.98831417685350   -1.51117735440848    1.20847714784740
O           1.36619979440770   -1.23942828303880   -0.19050024928594
O           2.07441698891420   -1.88144974272869    2.04438824211350
O           0.20567940181392   -0.36397423365371    1.71349537925328
O          -0.04059358273624   -2.70378290281167    1.13814902042726
H          -0.74136229912404   -2.37206706467181    0.55511949830283
H           0.96010068357090    1.03067965304425    1.56581224069746
O           1.23479225043384    1.97052478406787    1.38029417235876
H           1.12395946992483    2.43867673449967    2.20902444967464
O          -0.15925936042038   -0.42038007416760   -2.02913287061559
H           0.39700419334547   -0.38933607565863   -2.80975230253214
H           0.44919335849387   -0.77270291345784   -1.29879853877626
O          -1.95411254893264   -1.89972881415084   -0.66514549636787
H          -2.22387494169609   -2.71990276526574   -1.08197360607651
H          -1.41010813612077   -1.41022060119809   -1.31342954989681
O           2.16144067414914    1.18888628861402   -1.16646266494956
H           2.45575873829565    1.70704365938738   -0.41342646278630
H           2.09902514682360    0.27955890240444   -0.82747819923373
O          -2.16394543386456    0.38145424517947    0.94581271595816
H          -1.34281525369159    0.07050912756686    1.40407332148947
H          -2.47388983662390   -0.39299235975224    0.46020054841186
N          -0.60945935984161    1.83112277511467   -0.58286847891433
H          -1.37278660289453    1.35615994662974    0.00030352984565
H          -0.27917381357883    1.11535465757260   -1.27181477111641
H          -0.92982761148207    2.67281658130538   -1.04788925190496
H           0.18532389398603    2.03435583957874    0.07352216607543
