    26
        -50.46631275  Gyration_radius:  2.39729443096 Dipole_moment: 8.096
 S          -0.46680357518923   -0.52569787403244    1.79146361158537
O           0.08652653526729   -1.48583076337088    0.80513138521692
O           0.23447268500428   -0.57627886625390    3.03775253605528
O          -0.41816320056753    0.82688976469949    1.19508996479464
O          -1.95085321874199   -0.88728915181853    1.98613614658003
H          -2.37306286034617   -0.80041210382104    1.08028177062529
H           1.09214998199031    1.38843763783739    1.75287405772645
O           2.02622871561359    1.24462527101432    2.01556821702353
H           1.92511047423590    0.65864923433929    2.77793165111562
O          -1.24727258405683    1.67560954229433   -1.05522841412679
H          -0.94883385046709    1.34692167309445   -0.15749356874541
H          -1.38055916289216    2.61932659450918   -0.95535070674841
O          -0.79854669663776   -1.81441226955823   -1.69539446072614
H          -0.46504410042967   -1.89464226492458   -0.78168318277320
H          -0.25714353529949   -1.13028002698058   -2.10682043889192
O           0.84085285916773    0.57039049633521   -2.28394158518706
H           0.97907433870757    0.98377889179667   -3.13693533539713
H           0.05625830815283    1.01202114403996   -1.87877734854857
O          -2.83769614588963   -0.58307121368859   -0.43270805941802
H          -2.27986645988409   -1.17796938431752   -0.97915583854088
H          -2.59241314713678    0.30896783606232   -0.71495773011417
N           2.19368366975199   -0.35078723340516   -0.07313957221373
H           2.33963269954427    0.36217356779073    0.70016550374146
H           1.34982487349396   -0.93819255728324    0.28592560801221
H           1.87982360348764    0.09635257464333   -0.95184821967117
H           3.01261981312933   -0.92928052902795   -0.22488599135558
