    26
        -50.46934682  Gyration_radius:  2.40570395756 Dipole_moment: 4.748
 S          -1.00005333349178    0.52949475456050    1.13004145188595
O           0.18916296339459   -0.10885010519093    1.72283692453162
O          -2.21309432126123    0.21458573524798    1.83259677488776
O          -0.75370627556677    2.06982523234436    1.18422598692355
O          -1.09287973621999    0.17354528192777   -0.29189461054903
H          -0.70291246522640    1.47044841555011   -1.26570612124125
H           0.23694261165597    2.17176840991120    1.13564131118178
O          -0.25901882148645    2.21462349273693   -1.72973529265187
H          -0.39847629783463    2.98087604554390   -1.16845094282380
O           1.82635114832088    1.84793071485258    1.02418781416226
H           1.58751880135919    1.01908882143157    1.47142788098265
H           2.08002554154492    1.59216897041657    0.11777645317021
O           2.12356330620597    1.06133915203767   -1.60071949160096
H           1.25812400160480    1.51516924266337   -1.76382892723611
H           2.74665479763888    1.43635391165896   -2.22467679467546
O          -2.54862962766511   -2.12671722299856    0.66537889760638
H          -2.54893550605539   -1.30574095964165    1.21077969852000
H          -2.80728893948635   -1.83114201656105   -0.21159140387882
O           0.65832040839196   -1.33492358603068   -1.62017366145905
H           1.40211587762836   -0.71574796569177   -1.67398444417847
H          -0.08926407989678   -0.77121291727328   -1.33482522618014
N           0.08068695711479   -2.46527931531778    0.68406782590201
H           0.44298363058716   -2.24452505647840   -0.28489968703019
H          -0.97404521672391   -2.54249792634664    0.64437467808062
H           0.51592183071803   -3.27910950313835    1.10325919677939
H           0.23993275471376   -1.57147161623669    1.24389170888943
