    26
        -50.47154799  Gyration_radius:  2.43852708736 Dipole_moment: 3.628
 S          -0.20087820601126   -2.23878583586246    0.57664519955704
O           0.57096881622799   -1.77279573164141   -0.56928767703648
O          -0.75370330324057   -3.54601144271975    0.44176924298697
O           0.83944606448225   -2.31380630518300    1.79500822979248
O          -1.15176555388545   -1.20451971559196    0.99687261629807
H          -0.21365987232325   -0.12061226732741    1.71520444250033
H           0.97924460711232   -3.25299735941002    1.80970803249961
O           0.36528946206223    0.58394827215488    2.10045548244435
H           0.51302172266826    0.32770312022444    3.01176425791354
O          -0.76275910758893    2.42917689967622    0.35723157327483
H          -0.40063963305956    1.96061182308823    1.12717125112482
H          -1.48352949096411    1.86257712700726    0.02808002922129
O          -2.38551526491761    0.41861084856494   -0.61688100343406
H          -3.32723583045291    0.25590813897141   -0.54976245500241
H          -1.95130472311260   -0.22963645166803   -0.00744091316764
O           2.29032100527236    0.05841322547630    0.22824386639736
H           1.83084313925655    0.30422773279626    1.05115813991083
H           1.80283721274528   -0.73471415449229   -0.08524446729237
O          -0.43693433945177   -0.19737409886387   -2.47020511188332
H          -0.05785789030585   -0.91120545891231   -1.91565443579414
H          -1.28273276490569    0.02233479507457   -2.04544267054082
N           1.06062441264836    1.68890594964539   -1.41675587938983
H           1.56678370241365    2.35116118047539   -1.99180252287993
H           0.50253832400095    0.99251517717249   -2.00070606120207
H           1.71191722437441    1.10331379996647   -0.80506874056256
H           0.37468028691381    2.16305075140855   -0.76506042567153
