    26
        -50.47015551  Gyration_radius:  2.5015774541 Dipole_moment: 1.342
 S           1.39272051059713   -0.88339033317753    1.16441659694583
O           1.84452826989606   -2.00366418930357    0.37095771961885
O           1.69925139655208    0.40812680555858    0.56031801157614
O          -0.01246577395963   -0.98953194625488    1.53216938021242
O           2.22549362486688   -0.93745240083403    2.51310147450876
H           2.53985804395573   -1.83552497604689    2.53541777539619
H          -0.25620152892568    0.64729655067975    2.36520307670866
O           0.02729561176575    1.57221452257167    2.30688880495498
H           0.82344233393163    1.51061175897571    1.75786239514333
O          -1.80113544655398    2.59041756193665    0.64851591830971
H          -1.74690820227999    3.54394669268967    0.71602510664559
H          -1.16355070864701    2.22962073134724    1.30974106569923
O          -1.70658543093268   -1.44455108781234   -0.40673738037367
H          -1.08647661730482   -1.27120455191389    0.34317599043062
H          -2.46629310048289   -1.88497502526194   -0.02261614802181
O           0.51668435030136   -2.12299003257342   -1.92914786889535
H           1.08725331198350   -2.25277097030358   -1.14217682009494
H          -0.39012659125047   -2.13082611334814   -1.58331103308418
O          -1.71167113068112    1.06531465177741   -1.55023345372186
H          -1.92506462804919    0.18266566500629   -1.19861785527088
H          -1.80917527000737    1.67740011276720   -0.78937012917150
N           0.80209605713396    0.48795560255809   -1.92387016136937
H          -0.21060893829861    0.84319863127462   -1.85075381368678
H           0.74817366639950   -0.55621671213633   -2.12667865337205
H           1.33574690041833    0.98751338239093   -2.62562613990708
H           1.24371929958422    0.56681566943048   -0.97465384916234
