    26
        -50.45824184  Gyration_radius:  2.50075420786 Dipole_moment: 4.360
 S          -0.08497421354763   -1.98696997969929    1.46385823016263
O           0.25508106740245   -2.27004317233624    0.08084749182084
O          -0.18723862216118   -3.11219163993126    2.33369649893376
O           1.17158303957447   -1.13476074764458    2.04667114355371
O          -1.20961545468728   -1.04484222588865    1.53272995367382
H          -1.05856141851792    0.49966140448792    1.29114939153331
H           1.40520934425076   -1.74226073874436    2.73952841638186
O          -0.98762313158089    1.46905551819725    1.06027728284468
H          -1.57135370996488    1.92927044475311    1.66436305479107
O           1.08978602163167    2.54327316770525   -1.82407137241127
H           1.72344776023201    2.08725084403848   -2.38191836626138
H           1.44823690755498    2.49568086528635   -0.93128478792269
O           1.73425303009992    1.32192247833949    0.81158239398533
H           0.80173048738095    1.56390818907458    0.95490071956199
H           1.87948190917046    0.57818542124553    1.40922345113892
O           1.39480688353552   -0.36084618084904   -1.31135486131866
H           1.73650757141314    0.22331128620720   -0.60625677860424
H           1.07984310629762   -1.16901071347374   -0.84488188533935
O          -2.19897262579001   -1.57103501411823   -0.86199612418779
H          -2.07310481906188   -1.38970591394327    0.09291139648386
H          -1.50598828755834   -2.21930641270078   -1.04233393379970
N          -0.99083582030437    0.67413945094161   -1.56007337976122
H           0.02485408181470    0.31335195992303   -1.59957160554518
H          -1.61072479471605   -0.17742270288145   -1.44608018403681
H          -1.06376745143210    1.23995426166785   -0.69701813719863
H          -1.20206085101670    1.23943017035023   -2.37489801846349
