    26
        -50.46200870  Gyration_radius:  2.6809089352 Dipole_moment: 3.265
 S           0.71891125564312   -1.38167241635774    1.87090422238165
O           0.15513284124558   -0.14154332276168    2.39845074011697
O           1.90006440411525   -1.85674301015033    2.51067887638591
O          -0.41584482356631   -2.48963624875988    2.16017188815745
O           0.80228822201279   -1.31089437395833    0.40888711950530
H           0.39355160524913    1.28686446696552    1.61904649524006
H           0.13454421714566   -3.21078115739810    2.44508299966163
O           0.45597168179580    2.07459793692898    1.02764772380714
H           0.52284753115932    2.83820272351260    1.60196102294043
O           2.19690654188257    0.74003915462640   -0.69879547737187
H           1.90427385472087   -0.11634286035632   -0.34229871718631
H           1.78074789209009    1.40466371288328   -0.12960660737579
O          -2.40508938564501   -0.49189357299742    1.79821267701492
H          -2.53658049540057   -1.43436306864892    1.92212492802735
H          -1.52654076584976   -0.30993714284823    2.19359168055216
O           1.13421682382986    1.02517749709604   -3.12138229635819
H           1.55406264566675    0.92667567380280   -2.23216188857951
H           1.85337470871270    1.04974196509071   -3.75240967075608
O          -1.38023238878296    0.14516914086176   -3.07457218797566
H          -1.34047908678504   -0.73002065052110   -3.46364106216023
H          -0.49496531348442    0.54630215782689   -3.21565835416594
N          -1.10258631274953    0.29625246694056   -0.40521414076283
H          -1.88138070264218    0.07062170523319    0.24754593726497
H          -0.33552667169341   -0.40030702269539   -0.18476709302210
H          -1.35964293388644    0.24705983889191   -1.41865931912425
H          -0.72802537484610    1.22276640679016   -0.16513948622072
