    26
        -50.46832488  Gyration_radius:  2.56109924691 Dipole_moment: 4.109
 S          -0.90332315247085    0.64542580148867   -0.40661553064886
O          -2.29141346336478    0.96659762418018   -1.00836679342552
O          -0.63514209257449   -0.78474232683462   -0.63588141025346
O           0.09655060520969    1.46934447059329   -1.06839539119840
O          -1.00413666987001    0.91609273792164    1.02139693198477
O           1.52859878621333    1.66712846756507    1.19577935582180
H           1.45904431109298    1.86876910984278    0.25114596948056
H           0.59518390191924    1.50416572531574    1.42384213500222
O           0.51450670405751   -0.22488278882153   -3.03252558097149
H           0.59073156680581    0.51921516280814   -2.40079176754571
H           0.20512218223673   -0.94655320254777   -2.47081121713961
O          -1.23367939759789   -0.62193720537196    3.13141909861401
H          -1.34007001290673   -0.00516199766630    2.37060352686055
H          -0.92292787763002   -0.08396188576801    3.86219458571571
O           2.70092818642521   -0.67115716059734    1.45525100485480
H           2.33981766249938    0.25603952786097    1.44372480752682
H           3.27372329090501   -0.73818039808407    0.68949910834530
O          -1.85619438041164    0.82415343034772   -3.57126109978291
H          -0.97943707638776    0.36476326780843   -3.56515457255517
H          -2.20935456339707    0.88738762334344   -1.99793906675135
H          -1.68631651679282    1.71873261559403   -3.87441908091020
N           0.36051052850221   -1.93669338560115    1.44868815664263
H           1.33999633641281   -1.55056345392446    1.50518929653263
H          -0.08497931150136   -1.52431684359145    0.56136108632551
H           0.35374749914241   -2.95024574188842    1.42265688749697
H          -0.21148706648470   -1.56941916396034    2.24940956998976
