    26
        -50.46832474  Gyration_radius:  2.5607025941 Dipole_moment: 4.094
 S           0.66397512530782    0.10776505107313   -0.97188646076198
O           1.67002014999968   -0.27476394987021   -2.08257025146396
O           0.27556896160276   -1.12944690586878   -0.27323974878885
O           1.37639210426112    0.99652817066827   -0.06333298588938
O          -0.49462002746447    0.73836311398298   -1.58526760452489
O          -1.77213943271263   -1.51635972232212   -2.01637011556800
H          -1.54269218686116   -0.56991262332687   -1.91451258200204
H          -1.27835909913894   -1.93110122163223   -1.29788409472815
O           2.43297548423064    0.66815982527241    2.31286930294886
H           2.48389496568513    1.55161266254895    2.68292027222325
H           2.22503154831281    0.78915011183961    1.35754363403414
O          -1.83966326198169    0.84543784935883    2.39646335857654
H          -1.48409054680668    1.52288334699838    1.76016384155674
H          -2.68445049216239    0.56830444443368    2.03799964151962
O          -0.80590787764580    2.37420247343773    0.52475920089937
H           0.12707769941379    2.09800893690161    0.46565551368052
H          -1.14581210671188    2.07471997814099   -0.33094933955870
O           0.17441327830195   -1.52098934928804   -3.81124224990314
H           1.16939206333647   -0.79851140794776   -2.76615997431012
H          -0.63066270228449   -1.67170100230336   -3.25541875019090
H          -0.07776146442866   -0.87747183745899   -4.47704644714422
N           0.22711134113316   -0.82670364725830    2.28985734783920
H           0.18610142481151   -1.68821951061547    2.82288750422394
H          -0.61980636496816   -0.22063345833011    2.45460923415632
H           1.09920149269074   -0.28263564465196    2.50597137659796
H           0.26480991406440   -1.02668566378558    1.23418039659056
