    26
        -50.46149532  Gyration_radius:  2.42970021025 Dipole_moment: 8.127
 S           0.07020083345988   -0.36256907837290   -0.75965390734501
O          -0.33704635934038    0.24269322358470    0.62879334806387
O           1.08271072713982   -1.37657786687819   -0.48044527358563
O          -1.18482814422997   -0.97164872158740   -1.22311215763157
O           0.54503131854795    0.68784949649775   -1.61978274624645
O           0.33138579595293    3.24436865745443   -0.80696604110239
H           0.48999954503093    2.42621172531686   -1.31248750375324
H          -0.62957235870734    3.27182511598017   -0.70638258471164
O           0.31899007451547   -3.24403135833158    1.14447109386637
H           0.72036847636828   -2.53456044883647    0.57463381275527
H           0.54370832507956   -4.07366784435630    0.71909993090593
O          -2.13237624876098    1.81271209974419   -0.77294844606545
H          -2.09313051830639    1.34005818615354   -1.60771251778200
H          -1.60432483860422    1.28368944236448   -0.16121476732948
O           3.03111604121133    0.47211872378357   -0.31828246485851
H           2.90298467345751    0.89307632046024   -1.17334448509490
H           2.46665544606063   -0.32184458061830   -0.34731047563870
O           1.39718764118519    1.90815541142974    1.21698962467396
H           0.40799094050142    0.94012145657558    0.96098760795755
H           2.17871172838500    1.48087756493833    0.79289263931824
H           1.09856031105012    2.61179338859640    0.58682905991815
N          -1.96016051724209   -1.96335594352545    0.95931977117423
H          -1.89886039450490   -1.16744688441444    1.59234210908341
H          -1.14911578277654   -2.62082382435496    1.15623060932310
H          -2.86589764603882   -2.41812761488300    1.01213581278626
H          -1.73028907943514   -1.56089664672403   -0.05508202867720
