    26
        -50.45871969  Gyration_radius:  2.51167740093 Dipole_moment: 7.227
 S           1.23101660223051   -1.83426250300087    0.86732619849417
O           1.73561523719065   -0.70804675195566    0.09031761369507
O           2.11915063667803   -2.94339691377382    0.98875840106497
O           1.05605954429821   -1.26264205199047    2.37131561536724
O          -0.12955932670934   -2.17573263732805    0.44712804815436
H          -1.24224952466830   -1.12250657700905    0.55683626870408
H           1.76018401879018   -1.74457495452860    2.79128715296410
O          -1.99212056003387   -0.44898209693461    0.55604852929095
H          -2.76269002485793   -0.92222274415088    0.87340877798290
O           1.42420979882397    1.93780497106567    0.44835906194221
H           1.70557255237132    1.02176206898798    0.26866632373178
H           0.78383350134904    1.85188140923234    1.18313105523537
O           0.53816281584920   -1.47756045190585   -2.07863431625492
H           1.20341791909358   -1.10431576235890   -1.45811609506270
H           0.13401957680490   -2.17290450573079   -1.54134496630295
O          -0.04369757897684    2.73989973123564   -1.51578826941316
H           0.62284275482402    2.47049510760117   -0.81024588332818
H          -0.50876825491850    3.49498182139665   -1.15257679663156
O          -0.43640374719465    1.12779012785105    2.25063675694579
H           0.10624842633153    0.38353450646912    2.54043955765323
H          -1.12648220918744    0.73172631614084    1.69687161648515
N          -1.25570295324008    0.43779184988067   -1.88894035873328
H          -1.93753261062680    0.45568842287733   -2.63937895099324
H          -0.50566923185312   -0.30395067880026   -2.07924967868028
H          -0.78384040719789    1.38903554542582   -1.78596763796976
H          -1.69561695517053    0.17870676130620   -0.98028804433971
