    26
        -50.46832458  Gyration_radius:  2.56077509652 Dipole_moment: 4.094
 S           0.43792706788341    0.14624004504689   -1.08917028673383
O           1.25384687797677    0.77028644786043   -2.24542698879194
O          -0.90093127904318   -0.15746366025350   -1.57044921257308
O           1.16936409665262   -1.04083093426658   -0.66655760465653
O           0.38770131136397    1.12994241542858    0.00611920079838
O          -1.04145841744903   -2.33818839916907   -0.00590024576464
H          -1.49127140100134   -1.75686845086856   -0.63619375157758
H          -0.10673404545998   -2.14008631515761   -0.19881358445016
O           2.70301242878724   -1.57353158273005    1.39153815058009
H           2.29875512932081   -1.36820033148509    0.51697797021704
H           2.68433293098485   -2.52933602270140    1.46975394513553
O          -1.44491999462048   -1.39057898846801    2.41254841451869
H          -1.32818093595368   -1.86228005040423    1.54418616647808
H          -2.29049450282779   -0.94260333393200    2.35505989536212
O          -1.87730976379818    2.21965248923647   -1.02550096621872
H          -1.77966742372730    1.27303224112612   -1.25625970594961
H          -1.19532772070035    2.34370805499918   -0.35352534083431
O          -0.34160611504339    2.62070235836173   -3.14468299301918
H           0.71564811734927    1.52354396003068   -2.61311473288329
H          -0.81439575314990    2.24299862523117   -3.88955232952490
H          -0.98993564777174    2.65777633212704   -2.39759062824608
N           0.79440270324562    0.04267079510724    2.31173033589599
H          -0.08760047230905   -0.50736154286161    2.48851170629447
H           0.99236199347921    0.69335913403478    3.06367800118495
H           1.59670716394261   -0.61648479879452    2.15323554387721
H           0.65577365184029    0.55990152250120    1.37939902087231
