    26
        -50.46391274  Gyration_radius:  2.43717152691 Dipole_moment: 5.519
 S           0.19324706610568   -1.59941619951145    0.71692245101688
O          -0.15258300352509   -2.11023119007775    2.01408380282699
O           0.47522916369425   -2.58212881485787   -0.31572462760793
O          -1.06043359391829   -0.81006418858984    0.15246457443206
O           1.27254345525988   -0.59616029363955    0.77666105384142
H           0.78703705915825    0.69015154050880    1.58830790723024
H          -1.51478285737424   -0.46338609091273    0.95567539058480
O           0.41946738778971    1.48722129880294    2.05214324680006
H           1.17429962859594    2.01350979462165    2.31907387598258
O           2.71512140811195   -0.11976832091562   -1.34899059927807
H           2.22709172390683   -0.23204501764675   -0.49379056972252
H           3.47118275526830   -0.70602207972476   -1.28835923690992
O          -1.78975209821018   -0.09713335974899    2.56228047811104
H          -1.12716640363211    0.58440489432019    2.74851234723805
H          -1.33108440973143   -0.94446299165792    2.71696391539013
O          -1.06536151444011    1.23135303114430   -2.11377980179592
H          -0.53554847986892    1.98535827233260   -2.38060092674391
H          -1.36131928156119    1.43514296071698   -1.19688116699557
O          -1.64768049217285    2.10293683083242    0.35476165691889
H          -0.86537290562828    1.99005784768146    0.92574488444754
H          -2.36924383333204    1.66888229976806    0.81561185280886
N           0.40588456377925   -0.99051579856731   -2.34188327827945
H           0.30911601675649   -1.71410344257301   -1.55556910473011
H          -0.27743630112548   -0.19924919375479   -2.19382907338556
H           1.37452745608253   -0.60777787672679   -2.21688561745300
H           0.27301748006766   -1.41655393168695   -3.25291344478464
