    26
        -50.46532490  Gyration_radius:  2.43138822361 Dipole_moment: 4.600
 S          -1.74747021219464    0.41086264909646   -0.06081440300964
O          -0.77957966164900    1.42988880167679    0.36878449994428
O          -2.98864211547945    0.97558399637757   -0.50871134725573
O          -1.03146415635254   -0.24971447286039   -1.34724058079746
O          -1.83837233451787   -0.66627080777796    0.89498715337536
H          -0.95846154643883   -2.01520568291574    0.57816966007362
H          -1.12794174947972    0.49441952751628   -1.98363981247364
O           0.30714766672738    0.24398032266078    2.48424371216994
H          -0.43992304476523   -0.24592715911003    2.83765290586136
O          -1.55279546940457    2.07761491358416   -2.38876626487029
H          -1.01977081616995    2.73915203488467   -1.94004731377030
H          -2.31288938785419    1.89817632139557   -1.79581590402680
O          -0.39128501641212   -2.81159647999517    0.45718700376249
H          -0.07911129391601    0.74598349149319    1.73664780281904
H          -0.96029102412791   -3.56208307988211    0.63098251576833
O           1.81750142676023   -1.66855844567531    1.41253069360460
H           1.38396123292727   -0.95380401057463    1.93866861370733
H           1.10255677088320   -2.31265017105142    1.23587835114124
O           1.63680739059655    2.03693857284577   -0.38699085465589
H           0.69030533717845    1.92107842064535   -0.12786649706306
H           2.08319207859559    2.33145032931280    0.40976830461257
N           1.65916756296439   -0.57118224068396   -0.91419688409264
H           2.22499001056686   -0.97339309518600   -1.65320034607234
H           0.64859701808367   -0.66718753268913   -1.13134146168364
H           1.83352344998307   -1.06684864290482    0.04784952104145
H           1.84024787349317    0.45929243979715   -0.79471906809285
