    26
        -50.46234006  Gyration_radius:  2.75159195114 Dipole_moment: 2.942
 S          -1.11970149609880   -1.43808923136831    1.80615451872652
O          -1.09202092146307   -0.13345467555936    2.43649387457823
O          -2.08380337224417   -1.51469724273051    0.71866259629953
O           0.19672722418482   -1.90690069142041    1.38589639556096
O          -1.60933117073586   -2.44448822450651    2.93552947643459
H          -2.02036619064527   -1.85715320013646    3.56202255738346
H           1.16566837699721   -0.44901701708827    1.28481188471210
O           1.11382036160678    0.52651332109089    1.23084797228577
H           0.33628666471584    0.68973261155969    1.80227268627836
O           3.02750162543264    1.92899843007682   -0.17575639383450
H           3.83912584320397    1.42884853861756   -0.07603122046985
H           2.38947880566443    1.53904519554461    0.44696042866666
O          -2.59100034929144    0.71201474030319   -0.56647819710409
H          -3.44133923650810    0.58580083972111   -0.98952974112418
H          -2.45696104702303   -0.07600075623677    0.01416087732898
O           1.76523209630230    2.01956669976289   -2.56553340825847
H           2.32524258923440    2.03180557132655   -1.75997372660893
H           1.64189928566162    2.93460694107547   -2.82088952745149
O          -0.23412155866659   -2.20497196486845   -1.19991098984040
H          -1.18639827662457   -2.30493969467425   -1.08640287569203
H           0.09435303199570   -2.26525472925222   -0.27741470618506
N          -0.01077794505307    0.45191348464544   -1.24657525891652
H          -1.00433684453194    0.74912877272455   -1.17267401976172
H           0.53058293447099    0.99465524270005   -1.94631260282681
H           0.43081955019627    0.58812147850886   -0.30745523385676
H          -0.00657998076845   -0.58578443982410   -1.43287537634479
