    26
        -50.47024503  Gyration_radius:  2.413052939 Dipole_moment: 1.718
 S           1.24879234667197   -1.55879476923478   -0.28900070409870
O           1.96730146498167   -1.07202363019900    0.87221092076133
O           0.21114536523318   -2.51489457388574    0.01825649510135
O           0.76149128600422   -0.46711208806131   -1.13341381884630
O           2.31389736894025   -2.30445902508477   -1.20148079561991
H           2.60040472923382   -3.03733653818550   -0.66563055257055
H          -0.90806029502051   -0.86803136875556   -0.98436631536797
O          -1.88167213117102   -0.90848714720219   -0.90224105144983
H          -2.06153055440010   -1.83234843405040   -0.71303330335200
O          -0.21839349991745   -1.26805068745954    2.36559918991817
H           0.69979837986679   -1.04523057236943    2.13926135694304
H          -0.40460977848366   -1.98923436421162    1.74620119761265
O          -0.93730661661233    1.43539392717981   -2.23300561082389
H          -0.17834824627066    0.83577889630316   -2.16858985976260
H          -1.70506884635152    0.86039872202622   -2.13128471736896
O          -1.87611057927442    0.56272132278905    1.38577860044694
H          -2.09602682353087    0.04650372773883    0.58442523960507
H          -1.30932494287351   -0.04466534850327    1.91722487284021
O           2.02525697497690    1.50166260127013    0.10065426103301
H           2.37088516218440    0.95041825164117    0.81359018938424
H           1.70129367623568    0.83269354083999   -0.53572672395013
N          -0.46640813314449    2.40876836981868    0.21594372909219
H           0.55857378267884    2.17553221288010    0.31292390216642
H          -1.04574736188838    1.71368441284995    0.80338149609867
H          -0.65747627057605    3.37049211174678    0.47197961205016
H          -0.71275646749609    2.21662047011000   -0.78965760984146
