    26
        -50.46458729  Gyration_radius:  2.3404754023 Dipole_moment: 5.105
 S           0.24995292006399   -1.01750683135045    1.51549217145831
O          -0.69957265198969   -0.32706425131423    2.37299750147586
O           0.73409668361808   -2.28139765189169    1.96718038858205
O          -0.56566229109338   -1.31248643873455    0.15312077996437
O           1.32436635849790   -0.11151545352404    1.07682034665724
H           0.37748167834195    1.23826930350551    1.04480779153281
H          -1.49286415558747   -1.07916629573758    0.31345405786327
O          -0.16473911790481    2.04225451110278    0.87726792781322
H          -0.71413232374640    2.12697896136669    1.65938812683998
O           1.86224723902940   -2.02647808014404   -0.66772940034877
H           1.88264060188629   -1.38374829844271    0.06563855172991
H           1.46856114681795   -2.80552540791749   -0.26545037686765
O          -2.88020911210350   -0.21741837001177    1.00717412750313
H          -2.15260094537279   -0.13003096232796    1.67532720351272
H          -3.58551181669410   -0.69840972214387    1.44293977351973
O           2.16657961250031    1.67424943990720   -0.81261855994754
H           2.20852962172114    1.05572471328005   -0.06338855374780
H           1.58947021926788    2.38278344971045   -0.50692516970725
O          -1.56850709935631    1.07361390993003   -1.20034040629876
H          -1.09440401822881    1.57699523911286   -0.50178920720093
H          -2.28578900088278    0.63320870105967   -0.73042179944037
N           0.66019590696233   -0.09363940367798   -2.11304871032818
H           0.96026664008576   -0.97778928508138   -1.62626190906662
H           1.32080638539990    0.65872565964430   -1.76831785576851
H           0.70382098593559   -0.19593403509291   -3.12113160495186
H          -0.30502342705107    0.19530660911620   -1.79418519471703
