    26
        -50.45856247  Gyration_radius:  2.57538336871 Dipole_moment: 5.413
 S           0.66475360370572   -0.11285362706748   -0.86231282097607
O           0.94963364333165    0.80974244214822    0.36547272791440
O           0.88852821262143   -1.48917818649056   -0.47294572081967
O          -0.76010153596253    0.14143389007502   -1.19789320345330
O           1.53077967092761    0.36292723444962   -1.91501633448555
O          -1.67498979402102   -2.27040304443341   -0.45336381383516
H          -0.70821399029006   -2.36360326973446   -0.42400992074884
H          -1.78203954937299   -1.42835272761987   -0.91830775710175
O           1.71363799007794   -2.38888183581241    1.89586601152057
H           1.44497908734921   -2.17849650883202    0.97795872214258
H           2.67132615906783   -2.35904958662463    1.90526049536305
O           1.23038685517317    2.79848084776707   -2.70927213161508
H           1.08782283753921    2.73438041021125   -3.65546576720243
H           1.48537389442796    1.87926822120646   -2.41806099982725
O          -2.17318576150581   -1.45170091334125    2.02570004749656
H          -2.06921398323548   -1.78268507757471    1.09921928762810
H          -2.28087271502748   -2.23222376943300    2.57181269787428
O           0.16895507888297   -0.27366437496278    2.49049472801666
H          -0.74582190410006   -0.62340248424305    2.36289969683251
H           0.74558726770935   -1.06588265458276    2.50770366604454
H           0.62213431167301    0.36788693755862    1.24455761003355
N          -0.63096954125989    2.62937313704612   -0.87585710997546
H          -1.47082590848458    3.19785677249450   -0.84500960694943
H          -0.82623399284385    1.54538402866018   -1.04941823430202
H           0.03624688777515    2.90178731971209   -1.65632792082986
H          -0.11767684410101    2.65185680940203    0.00631567123039
