    26
        -50.45894397  Gyration_radius:  2.45384742176 Dipole_moment: 7.568
 S           1.69565310016363   -1.04224968006934    0.33841800332459
O           1.38097578148507   -2.31761583214133   -0.29197961068962
O           3.07405646096249   -0.68020623298419    0.41879184023378
O           0.95769556885024   -0.00190925690609   -0.61778845298320
O           0.99543535720423   -0.91517867295006    1.63293552463346
H          -0.49911299619725   -0.59929894228293    1.69738496834067
H           0.61116726685292    0.76417455303339   -0.09805737234540
O          -1.48342867402247   -0.40447944233976    1.62083972518293
H          -1.86307350276663   -0.65004366361636    2.46577555366637
O          -0.12809196639589    1.98045684523983    0.72963059738142
H           0.65293735483410    2.04172311790702    1.32653032859383
H          -0.78872839058893    1.44384838209270    1.18938288714938
O           2.10468101982678    1.43967676218344    2.06195026283319
H           1.77747517991334    0.52196291279067    2.13569530245545
H           2.92651575250800    1.34319970611366    1.57134340999956
O          -0.30014337443416    2.03072076916760   -2.12290320778549
H           0.57610361219030    1.64268755397328   -2.20490644083510
H          -0.38475042141536    2.28550605618665   -1.19309933623771
O          -1.80414150737946   -0.14414846100758   -2.52726150643058
H          -1.22368941604824    0.64926834677073   -2.44060619418131
H          -2.70254449782436    0.18901563328455   -2.54632979961318
N          -1.13180075342821   -1.92921225498699   -0.63276765279490
H          -1.30899734601341   -1.27969885653781   -1.44053518657055
H          -0.06324863434377   -2.13280571767611   -0.54696378969317
H          -1.43102624253439   -1.43635998171438    0.23306307639508
H          -1.63991876143149   -2.79903365340907   -0.75854294991146
