    26
        -50.45043603  Gyration_radius:  2.52564766269 Dipole_moment: 7.537
 S           0.07059966142689   -2.61536979262616    0.06250164167377
O           0.50994108231223   -1.51877389771454    0.90177855493115
O           0.10345022141632   -3.91076219335704    0.62585961049216
O          -1.35574577590746   -2.28073370948336   -0.44771420151770
O           0.91314194817708   -2.60373007205809   -1.23453567719534
H           1.00916350050311   -1.66505115403799   -1.56578540198166
H          -1.69369282460701   -1.39020978978557   -0.12757143020899
O          -2.36674930863788   -0.00679725955750    0.19994371476688
H          -3.24078150858336   -0.01877146410016   -0.19339399285185
O           2.28419249509141    0.41449058568583    0.27418035525113
H           1.81613403011430    1.20210442936723    0.61740798542289
H           1.82101497870440   -0.34308579582171    0.67430336548010
O          -0.71320758045082    0.38113422872704    2.40112446968007
H          -1.53801892268478    0.34053774591654    1.89954687394112
H          -0.19881436871213   -0.37458464985072    2.06882473796098
O           1.34944968229413   -0.17772714241516   -2.04677031315960
H           2.06053831855974   -0.26560956430939   -2.68431228213344
H           1.78002988451573    0.12535562884770   -1.18350084254197
O           0.66808237728073    2.34816752148627    1.31132400849551
H           0.12519811577641    1.66037584648604    1.78254608063351
H           1.02096282350878    2.92123120315071    1.99296710419176
N          -0.85260340520773    1.62897639869254   -1.13708578964463
H          -0.21053127253341    1.05681966443476   -1.67704288476588
H          -1.80213402714341    0.65680376758624   -0.33860553737825
H          -0.30890907056537    2.10823679978657   -0.42445147632995
H          -1.25071108464885    2.32697266495932   -1.75153867322713
