    26
        -50.47046816  Gyration_radius:  2.50641279256 Dipole_moment: 5.086
 S          -0.41654091979662   -1.08207680367137    0.40684422476038
O          -0.91637723939822   -0.81914785268344   -0.95341091379913
O           0.95288737280754   -1.53461389568209    0.38663028969224
O          -0.55903138050394    0.13290221881885    1.22231144889348
O          -1.30054176066382   -2.17926278251200    1.03411770141728
H          -2.22113248233195   -1.95580650001862    0.70782966317184
H           0.25631505503521    1.40137005740059    0.68915958708509
O           0.76253336179132    2.14567025174197    0.26682953114406
H           0.26962004504243    2.94409798951534    0.46307194984115
O           3.04088582193716   -0.93594719436602   -1.29850959069925
H           2.47940649937684   -1.61998835344168   -0.90307063683949
H           3.34881855386565   -0.43315143191444   -0.51404643116393
O          -3.04820376000439    0.96415055988324    1.45345067236444
H          -2.09689683287879    0.71908317156936    1.40268840488476
H          -3.29148744678922    0.89358677216373    2.37813265371570
O           2.86132136000982    0.32324357113487    1.05324063422248
H           2.38499327745278    1.15859474755407    0.99556337198164
H           2.17608518657003   -0.36496641941702    1.10917464810367
O          -3.42154016267593   -1.23174071034925   -0.05641683761803
H          -2.80682351460299   -1.01562833052387   -0.77336670504513
H          -3.53562109514157   -0.39815142298693    0.44745377595068
N           1.02018112424175    0.59649868378193   -1.93397159492439
H           0.19057765660688   -0.01695416779498   -1.65543083694320
H           0.93577242749508    0.92965327268112   -2.88829994469019
H           1.02866907435068    1.37950052865336   -1.24920083238656
H           1.90612974784428   -0.00091599897751   -1.79077427317043
