    26
        -50.45856257  Gyration_radius:  2.5757505522 Dipole_moment: 5.396
 S          -0.97571990832138    0.49374498849274    0.04131490072630
O          -0.75584146063268   -1.05174680821113    0.09812801776998
O          -0.77340349850900    0.94348191083712   -1.31972952287585
O          -2.30576621106822    0.71620791178343    0.55703160207690
O           0.04628730892456    1.05046607784403    0.96511571714205
O          -2.80156163089552   -0.03157656588270    2.97533689375560
H          -3.13127114803263    0.75460191514925    3.41459198223299
H          -2.74102156141297    0.21150748713949    2.00997118587445
O           3.07648046767721    0.04362350597618   -1.21335093284175
H           3.55474543229310    0.13412027761647   -2.03924769684090
H           2.58416037004423    0.89318713918923   -1.09209963043822
O           1.55881716173619    2.20613851157713   -0.92507283142836
H           0.75994867669140    1.93697901605714   -1.40770965283679
H           1.28849495612950    2.08127873280228   -0.00381820382120
O          -0.18869603596774   -0.54390774714285   -3.45151847717491
H          -1.01121922563289   -0.87551443526661   -3.81434922166620
H          -0.43889944362518    0.09757298678826   -2.75511423047337
O           1.11223585006956   -1.74088503928460   -1.42958700322259
H           0.74361004816980   -1.46908686966573   -2.29602869131288
H           1.88935531738408   -1.14932727908577   -1.28292718758737
H           0.01978344708272   -1.33900502037114   -0.52738404764134
N          -0.27967112906491   -0.69502874209804    2.74222562731395
H          -0.29318685252280   -1.52622401518985    2.14948023560656
H          -0.03446564047870    0.13496345604885    2.03975727253290
H          -1.27547149582542   -0.49021137102885    3.05054828499754
H           0.37227619577596   -0.78536003412817    3.51443560017445
