    26
        -50.45018321  Gyration_radius:  2.44655520208 Dipole_moment: 6.827
 S           0.91470105982776   -1.94281343606235    0.47785726100536
O           0.55599291772098   -2.26302278131496   -0.90631915354691
O           1.81977519917595   -2.83137487089362    1.11884438931353
O           1.65375951287749   -0.50867348329963    0.33472397736007
O          -0.28704345041862   -1.62708507547293    1.25848741777567
H          -0.81405729623763   -0.16347260797754    1.68264608701095
H           1.65328465146797   -0.34623823503327   -0.62795947880448
O          -1.23943650362203    0.71098721458098    1.87785583885066
H          -0.93681326162611    0.96009880440519    2.75140397580847
O           2.10906937373754    2.16148991073770    0.62947655038736
H           2.09031891490906    1.19025434215724    0.69790263178582
H           2.47928503177703    2.49081678067146    1.44923904531880
O          -0.42440040564452    1.90005305283312   -0.38976396435194
H          -0.86425161369602    1.60568114376847    0.43507000260349
H           0.44312234462925    2.20931267940895   -0.07659081709930
O           1.52317180471900    0.61731235874377   -2.10423285175565
H           0.93431750455756    1.31326639491629   -1.78230318479008
H           2.38562529157700    1.02025102590119   -2.22157784059634
O          -2.83239328361235   -1.36456049917141    0.52159092993841
H          -3.02632329027493   -0.61806584986070    1.09754823005717
H          -2.00178357167341   -1.74239473955711    0.87893635012522
N          -1.23815580355048   -0.53634226989537   -1.44192967389525
H          -2.02545534717352   -0.82087234697970   -0.80040022997600
H          -1.52727348875828   -0.53261855029088   -2.41405780186742
H          -0.89127343574646    0.40031577330435   -1.15971128685800
H          -0.45376283494125   -1.28230474562054   -1.28673639379887
