    26
        -50.45913621  Gyration_radius:  2.55392655127 Dipole_moment: 6.978
 S           1.72683502522702    0.09264441387904   -1.79998223258842
O           0.48813201242933    0.24127311277819   -2.52038665720822
O           2.36069190478083   -1.19494823996285   -1.90957915163618
O           2.76551343812844    1.14086639029406   -2.41529713501938
O           1.56090168490056    0.51500863617870   -0.39351843661347
H           0.60634236952030    1.60060005634820    0.19055373225472
H           3.52509162537526    0.59178073328846   -2.58432970765474
O          -0.02266669495050    2.22895087848285    0.64994842419639
H           0.52216992046704    2.95170041268714    0.96395944933043
O          -1.69068569740241    1.34217336730424   -1.52149679352425
H          -0.93543110540561    0.98301474199497   -2.03653466773176
H          -1.28931055594845    1.92472436460608   -0.86553290353514
O          -2.17163175486227   -0.86991183978439   -0.20536699462516
H          -2.13923900956880   -0.08400997440254   -0.81584874552878
H          -1.36430669509128   -1.37750403633623   -0.39806031517579
O           0.24041818244633   -1.80887521224471    2.57863569661835
H          -0.13162096642653   -2.64706030500762    2.85758789972517
H           0.46024221400677   -1.91049558496233    1.62698141085294
O           0.43050328660697   -1.80411907745338   -0.10450523396984
H           0.83477969975894   -0.90724421658443   -0.14923622244134
H           0.96310951202817   -2.29012733460697   -0.74490412829252
N          -1.35457810974739    0.27168112003318    1.95188398397268
H          -1.80577154631219   -0.21588332413490    1.07595806601864
H          -0.81543405605236    1.08752876514521    1.58353430360361
H          -2.05781500528082    0.57190669149909    2.61702777913039
H          -0.70623970862368   -0.43367451903770    2.36850858983950
