    26
        -50.45994544  Gyration_radius:  2.51266890268 Dipole_moment: 5.815
 S           0.85351107116634    1.36010294852925    1.44246819463081
O           1.72075759676235    1.84125148607186    0.36384226152315
O           1.56208680078296    0.87302949813994    2.59469082891525
O           0.03359529170451    2.66068848417430    1.93287296756059
O          -0.15986191435697    0.46441145629508    0.92383293583674
H           2.50584004245973   -0.55657387896004    1.54847615340730
H           0.48617264072743    2.94407497825554    2.72228947160078
O           2.69162189402978   -0.61228081671212    0.60132217723648
H           2.57958339068960    0.31121504499254    0.30994081547435
O          -0.40985904309266    2.40042207130255   -1.00942818987037
H          -0.97170277843324    2.61593798493923   -0.25991072296383
H           0.48266235670476    2.28459789904360   -0.60325948588470
O          -1.15369517705568   -1.97424848751254    1.03277278376818
H          -0.45157334037119   -2.35256918961083    0.48996177467384
H          -0.84156236641501   -1.06276235661968    1.20702952546056
O           0.98028730426997   -1.91507506208242   -0.90043871788640
H           1.56218612869698   -2.39956117474794   -1.48861712579485
H           1.58405795615771   -1.43750396086755   -0.26951577807875
O          -2.97967383658882   -1.30229120278660   -0.72750483512013
H          -3.40681922220016   -2.10348966477677   -1.03302487387818
H          -2.41741044599489   -1.56545533598079    0.05176159865519
N          -0.85069937592417   -0.09596357680488   -1.80656011150101
H          -1.76560365535136   -0.47633216993038   -1.45303967195949
H          -0.83361575959489   -0.06711982224988   -2.82093103969850
H          -0.70118690318325    0.88556036853327   -1.41418796917344
H          -0.09909865566670   -0.72006552043335   -1.43484296696020
