    26
        -50.47376049  Gyration_radius:  2.38789311849 Dipole_moment: 3.933
 S          -1.39868286780149    1.19343953348230   -0.02453026511275
O          -2.65641674685077    1.23532202949698   -0.71745331441718
O          -1.37364226848927    0.28671535475977    1.11148285923344
O          -0.24054058803152    0.99999503343502   -0.88773034648015
O          -1.18434083616022    2.65853781717768    0.58784121774225
H          -2.08147148149690    2.93547327377365    0.74018800350890
H           1.18941075410253    0.17121571386278   -1.41946666196364
O           2.06340049387272   -0.26205189238700   -1.43769003097772
H           2.66253168736989    0.38885608588351   -1.06074585342372
O          -1.29289879947026   -2.15693211536353    0.02563378402374
H          -1.49120918397255   -1.36153399175768    0.55600591914550
H          -1.56322689068368   -1.90810251309295   -0.88325494800877
O           1.66744324128609    1.98376803595523    0.65305588710311
H           1.38595762471114    2.82766484575366    1.01043011631215
H           0.94157303044586    1.70379893621048    0.05677090990677
O          -1.92505726031702   -0.84445411462561   -2.22536734281221
H          -1.14629274658148   -0.45474347974327   -2.62961918771068
H          -2.37335469382696   -0.10651090986431   -1.77151551340588
O           1.00570098572943   -0.11054698317184    2.23896801317601
H           0.06039284783016    0.02673680429336    2.01993704085114
H           1.45357106263192    0.65748538822611    1.83301058428842
N           1.28358581168440   -2.00239838916468    0.44325876261546
H           1.27041348822044   -1.33081311218094    1.27561610690658
H           1.78848432116721   -2.85655725276191    0.64800534873839
H           0.25265406093549   -2.19686725492598    0.21890797595411
H           1.70201494369741   -1.47749685326321   -0.36173907518245
