    26
        -50.46194699  Gyration_radius:  2.46131441746 Dipole_moment: 4.879
 S           0.30132501742321   -0.84149111170626    2.08125653084435
O          -0.37172456685572   -1.78120799944460    1.19528203112205
O           0.63500035597459   -1.32828572220169    3.37906169629975
O           1.72382023474868   -0.55460292837754    1.36284294479110
O          -0.38053501871074    0.45414794773967    2.06349921437206
H          -1.79051633921526    0.22773005670095    1.28778482352204
H           2.25169914421758   -0.48460420970592    2.15013390477519
O          -2.51889495625530   -0.12463142958115    0.72009766776990
H          -2.46022093342222   -1.07437675115933    0.86896622009539
O           2.15481121920195   -0.18666898859895   -1.39416182322626
H           2.24784978584701   -0.17607666057184   -0.43248378700535
H           1.57588859046467   -0.94309651126176   -1.57210058421291
O           0.65602261626674    2.58819418842141    0.94498365357981
H           0.18005188038477    3.32083900048960    1.33833531627201
H           0.32069775589348    1.77830571219005    1.39069972626878
O           0.49134678250944    1.89299540770302   -1.62971955056347
H           0.56399446615495    2.27311558929183   -0.72652684346918
H           1.24075949615546    1.25787240935542   -1.68613923179607
O           0.10779625025074   -2.07539032606637   -1.30801221401765
H           0.09118939489276   -3.01915772813980   -1.47143368995426
H          -0.01742159564608   -1.96848428928880   -0.32199337115532
N          -1.42010919288045    0.15297918927368   -1.66602831405754
H          -2.06866098407413    0.27878449897282   -2.43492674276739
H          -0.67249500207264    0.94931505921082   -1.65736606672150
H          -1.93271440555139    0.12855692810262   -0.73286791464916
H          -0.90896003056321   -0.74476131955373   -1.74918360043056
