    26
        -50.47771708  Gyration_radius:  2.36986949834 Dipole_moment: 4.709
 S           0.89641424146142   -0.43405401643952    1.08519036085219
O           0.64775316327305   -1.34946367562343   -0.03086991369687
O           2.06737879933681    0.38473409079311    0.86563072814711
O          -0.28785505535453    0.39993454713356    1.33022914879165
O           1.12563297930916   -1.28864570770471    2.36079546376264
H           0.36447915405235   -1.91384921059052    2.34541494316866
H           0.12025471533744    1.93749448204076    0.85355348186597
O           0.54802811560764    2.68935847067135    0.38414384893026
H           1.48187893582063    2.56820765376381    0.58753267817346
O          -2.65730085955303   -0.60360894147534    0.99182162156278
H          -1.78665554344184   -0.16898173651283    1.16968225223216
H          -3.29877017748961   -0.15862046315327    1.54716055605485
O          -1.36092403389458   -0.45657155970352   -1.49614057246680
H          -2.08477079553139   -0.44506490872345   -0.85359720887599
H          -0.62243754493065   -0.89600056052301   -1.01836095703317
O           2.36193010506337    0.05627647377173   -1.72106844646103
H           2.02810143797179   -0.84636690147659   -1.75854141905916
H           2.44758837408079    0.22409876755579   -0.75432141457541
O          -0.95188347438855   -2.71994630734183    1.63442260385186
H          -1.75185069674738   -2.17899395570367    1.52728401586124
H          -0.46868976238393   -2.61928776558868    0.80034115054316
N           0.22541534949833    1.58752981293390   -1.99682762656821
H          -0.54960979575130    0.87358858808016   -1.86900513369683
H           0.08074606848454    2.15970448186238   -2.82109575958747
H           0.29673168208657    2.17029669722991   -1.11143521861989
H           1.12841460805836    1.02823163471789   -2.05193919313407
