    26
        -50.46173957  Gyration_radius:  2.46571271229 Dipole_moment: 3.772
 S          -0.07051954997626   -2.26576549560435    0.68698784066352
O          -0.01309176731110   -2.30726023016048   -0.77711535460616
O          -0.65981665876874   -3.39758470338064    1.31121920718866
O           1.42889298678066   -2.14867036542901    1.17122302313728
O          -0.69319532028807   -0.98218070655493    1.10437141489398
H           0.18874461646333    0.11779009127206    1.76739082458230
H           1.79559551619022   -1.44855323838690    0.60880649446356
O           0.79544448415666    0.84387775726727    2.09581050634691
H           0.97723451430696    0.63803981340160    3.01372002952462
O           2.43562236947369    0.16590485547765    0.11913874640488
H           3.36675372872210    0.24680976836506    0.33183788620458
H           1.93017672036429    0.54959200546124    0.87447206219745
O          -0.60103541499704    2.45027320449000    0.24947054280885
H          -0.13018130506036    2.09876237440554    1.01817330180274
H          -1.40232617607545    1.91253847519107    0.16589807680612
O           0.91284635141216    1.54197449178735   -1.75299666226884
H           1.59203944519168    1.06767722143156   -1.24708494854734
H           0.40654487672594    2.06062584108321   -1.08378652213948
O          -2.53645505111297    0.40078135644820   -0.04536606865828
H          -1.87618233220999   -0.16176185189453    0.44485904835437
H          -3.39316193121065    0.19072101925424    0.32746807804640
N          -0.90546226315436   -0.31099402475879   -2.10521668427484
H          -0.51857012162419   -1.17661765511791   -1.57699105554030
H          -1.16316380057440   -0.55757554361362   -3.05368107856981
H          -1.71812515262924    0.02532214031756   -1.56341898096368
H          -0.14860877487809    0.44627339907377   -2.08518972790802
