    26
        -50.46444049  Gyration_radius:  2.62327789281 Dipole_moment: 5.801
 S           1.04157155328319    0.32262371134339   -1.30799997630592
O           1.97617454442574   -0.08674232896344   -0.26762675009387
O           0.22163399348490   -0.77615095884586   -1.78285268330472
O           0.20522030772806    1.43336193449017   -0.83409769486411
O           1.85795903156698    0.85819748176749   -2.52542023041742
H           2.42223150743673    1.54162788941412   -2.11319469697017
H          -1.43084003752922    1.31855404500681   -0.52425046945800
O          -2.36169087670012    1.13751369378591   -0.25634915752271
H          -2.89575286010839    1.32654641320736   -1.02885292266073
O           3.01009301787399    2.32451903696641   -0.63534153972304
H           2.37200173928908    2.90717126672747   -0.21555266150489
H           2.86647752891920    1.44434404716326   -0.24206838428889
O          -1.86284461490890   -3.99899717280081    0.21411922105860
H          -1.36764431117018   -4.52522620083220    0.84606784146745
H          -1.55232862982537   -4.23718401428672   -0.66301823012262
O           0.63941246025821   -0.61391584893158    1.97644724496830
H           0.45833414648085    0.32296772935318    2.19311785691280
H           1.29931849184376   -0.55506234500092    1.25509640031792
O           0.04763054831036    2.01496591687255    1.75771142003429
H          -0.88136771270797    2.23947904938843    1.84453100995076
H           0.19027184014040    1.87544342090909    0.79826301471096
N          -1.27900672194421   -1.27379814836564    0.31506851905356
H          -1.70300543424271   -2.20771845871418    0.38889199595675
H          -0.58810809257260   -1.08650416769517    1.10910163115640
H          -0.71253663369889   -1.19927476894700   -0.57390882563499
H          -1.97320476563794   -0.50674121302067    0.27211807728504
