    26
        -50.46954697  Gyration_radius:  2.49914480503 Dipole_moment: 2.196
 S           0.77786344355879   -1.81039357453418    0.62124538241807
O           1.57081082091827   -0.89788102093215   -0.20407165225047
O           0.58244748664680   -1.29036153430818    1.94891942882097
O          -0.45122017223148   -2.19276411942690   -0.06138829038469
O           1.63147017532594   -3.13622025859203    0.76289975338512
H           1.71894516300204   -3.45226611897753   -0.13129262967384
H          -2.13260633051485   -1.84238819797390    1.28201917780109
O          -2.06081786790257   -1.21887748607518    2.01216805706297
H          -1.11426031349371   -1.25869058399900    2.24941855023290
O           0.96652991002958    0.70822716601136   -2.33033344805310
H           1.39934029915484    0.09003073932055   -1.71907624636406
H           0.02457314105334    0.48553862925150   -2.25571224601709
O          -1.48701363001773   -0.32346515020363   -1.55309317202765
H          -2.16032491661234   -0.73913790288138   -2.09399353298887
H          -1.07354311882838   -1.05072994029213   -1.02085093898903
O          -1.77455701357776    1.11332953847737    0.76132646946201
H          -2.02112524169134    0.35058125517794    1.33679333093201
H          -1.82718717168508    0.76561192161650   -0.14600829822398
O           1.35848034990408    3.01213387649892   -1.08405877440716
H           0.68721018506235    3.62205139768752   -1.39382084467574
H           1.30700064586880    2.21863508507214   -1.67642984665698
N           0.82862208263132    1.38218564149089    0.95705246018916
H           1.11026738616094    2.15732512218721    0.30388002341814
H           1.17895950227011    1.51438178232611    1.89977151595563
H          -0.24364959142046    1.31229543819599    0.96187552577751
H           1.20378476639611    0.48084829487813    0.57276025526200
