    26
        -50.46437735  Gyration_radius:  2.53029887848 Dipole_moment: 8.902
 S           0.22392651999789   -1.21404380509186    1.61915976576744
O           0.87775723832039   -1.32909287305018    0.31063328581448
O           0.49948322207744   -2.32402354614269    2.48441253557946
O           0.81410569567624    0.10603366558770    2.27430799635778
O          -1.19594999201688   -0.90066456542398    1.45389849028726
H          -1.22153801875185    0.63558630286605    1.06404579879311
H           1.74815412572735   -0.13135292843764    2.43308643218457
O          -1.25247130591981    1.57094394353031    0.72147530278801
H          -1.40454557867016    2.11782811171902    1.49311634423326
O           1.26656886282677    1.14330049924539   -0.51776811334001
H           0.58735236489162    1.54625963309183    0.04125737314481
H           1.24956515037167    0.19478962861154   -0.26563518966629
O          -1.37701900380337   -1.73629393369802   -1.02870421694990
H          -1.65833694762513   -1.62635312163824   -0.09902455400531
H          -0.40859908358057   -1.78457906506500   -0.92055441326859
O           2.98228398919706   -1.40861304409518    2.25817310363341
H           3.06498063856340   -1.51699642134642    1.30616420544944
H           2.26421857882594   -2.01415525661720    2.51899660835982
O           0.41009230484937    1.48040992581697   -2.96035734896296
H           0.88145050725334    1.31592775135134   -2.09714889521572
H           0.69358143392693    2.34517552951293   -3.25910762115373
N          -1.83255585388278    0.72160019773133   -1.78180024666058
H          -1.67390793654725   -0.32772886247210   -1.57195833024142
H          -2.73061031035541    0.87199817762503   -2.22754473448251
H          -1.77502330392956    1.20667105587528   -0.86547475094471
H          -1.03296329736732    1.05737299052352   -2.38364885751597
