    26
        -50.45912151  Gyration_radius:  2.68302290533 Dipole_moment: 5.091
 S           0.35726911568905   -2.83242153952430    0.06695327103533
O           0.39810899134771   -2.37625530519734   -1.31726142395954
O          -0.01036213631037   -4.19891240642741    0.24799530494906
O           1.88293256852707   -2.72023266342513    0.59901709165132
O          -0.36948104044361   -1.86456473721977    0.89232772570799
H           0.72403404203923   -0.73119507351959    0.77417265668530
H           2.14779106191346   -3.63006921831271    0.51878456208073
O           1.38224929998215    0.01310211750767    0.76900855720410
H           2.22635855649400   -0.42245704573892    0.90460318231417
O          -0.42554411619447    3.46891528869971   -0.02368467304578
H          -0.10903840971796    4.31024387250698    0.30759280524898
H          -0.58487086223946    2.90408065040691    0.74828475169510
O          -0.51262378904872    1.54562344788169    1.96444531601514
H          -0.69875613624998    1.18833517847880    2.83417264781285
H           0.25095063007894    1.04226378667356    1.61743040697882
O           1.05608275439716    1.65225286248758   -1.41842691907076
H           0.56641237504018    2.40597229081021   -1.03763371172441
H           1.36245573483643    1.12666434043519   -0.65729330236890
O          -2.19032261770727   -0.00195721815690    0.31453179036313
H          -1.81297721290338    0.71389500333092    0.85063570758135
H          -1.72385592037636   -0.80620669841865    0.61722662135800
N          -0.79836758033407   -0.14896684666431   -1.94055650897679
H          -1.48452356961892   -0.00435798434901   -1.14940180054855
H          -0.30926064024460   -1.07731884789426   -1.74839846329272
H          -1.26183216487842   -0.17208673677366   -2.84126576724171
H          -0.06282897383028    0.61565349209801   -1.89325981530015
