    26
        -50.46802986  Gyration_radius:  2.56367570493 Dipole_moment: 2.908
 S          -0.68522659486913    0.79218298105883    1.80289895100651
O          -1.48671109939324    0.53999462797676    0.60229193361820
O          -0.07255958746112    2.09536505793171    1.79263870496763
O          -1.70301334370148    0.78158534422146    3.02033157529873
O           0.23725107816969   -0.30468621125829    2.04732393056219
H          -0.89604488639277   -1.93433326005686    1.72044742916972
H          -1.95488689114359    1.69648909993631    3.09673906910136
O          -1.65126094636094   -2.05929544450065    1.13174132473878
H          -1.89941036099131   -1.14349591333582    0.91201146367619
O           2.20820582074823   -0.41722278948271    0.36576594649773
H           1.53185911625405   -0.35690353930810    1.08763952065465
H           2.84210191540160   -1.07879623863958    0.64709327251742
O           0.61540737603981    1.77544131400127   -2.79438775286805
H           1.26513077289810    2.07727771608343   -3.42982955317581
H           0.90833405866734    2.11779209500448   -1.91689668012320
O          -1.02999748245560   -2.85808234088556   -1.33446495357263
H          -1.83772593700509   -3.16661314658418   -1.74682569527856
H          -1.25205453187339   -2.70625956610449   -0.38285282242971
O           1.54956308223489    2.26150363980404   -0.34322024233319
H           0.93778574228502    2.36564955464240    0.41067571311558
H           2.09041181333755    1.49423382646319   -0.11964418818155
N           0.05872290161123   -0.40397904014543   -1.33996952276626
H           0.17737708358974    0.25829703539822   -2.13080896928790
H          -0.59554900535353    0.03446422435791   -0.64139837731341
H          -0.32727899369027   -1.33731477586503   -1.59677402747619
H           0.96956890949148   -0.52329425069464   -0.86052606011120
