    26
        -50.47163211  Gyration_radius:  2.39572088371 Dipole_moment: 7.830
 S           0.89784844234773   -1.47209584230753    0.51474806874908
O           0.32066478462559   -1.42132178758082   -0.82382379710810
O           2.30792946098342   -1.23012642743198    0.54801460678563
O           0.15489072721233   -0.55764891030566    1.40941476474967
O           0.62748765467517   -2.91439136216365    1.07250330901376
H          -0.33687964596829   -2.96337105169297    1.08995489024871
H           0.32822596915070    1.01570757046756    1.30995877183304
O           0.37992264686262    2.00230833299799    1.19259777087076
H           0.34342140876198    2.37736368658240    2.07348334825910
O           2.67400493243834    1.27626855812895   -0.34652064186697
H           2.73505097647644    0.36136225454240   -0.00936955050363
H           2.07857986140901    1.73779142810100    0.25826896577988
O          -1.94692182094073   -2.02690887616803    1.52980238084446
H          -2.22990369969984   -2.19793236856189    2.42974446591882
H          -1.22089311354357   -1.35834671157100    1.58022958032766
O           1.03979277282318    0.66728105329528   -2.32743300454086
H           1.79576573545400    0.97836863260784   -1.77146552528892
H           0.85766920145022   -0.23268400932751   -1.98987388066504
O          -2.17623910560955   -0.59971308865400   -0.88582245526912
H          -1.28767881676316   -1.01207186348106   -0.98619325088437
H          -2.53573164857419   -1.01192224106151   -0.09136078592859
N          -0.98574182675756    1.74860468646733   -1.15385294722589
H          -1.47455157461709    2.50182814291429   -1.62336248344165
H          -0.14351430309979    1.37363091540065   -1.74964099968447
H          -0.59280736492161    2.04931901021198   -0.24515887999068
H          -1.61039167412670    0.90870026850358   -1.00484271095893
