    26
        -50.46001038  Gyration_radius:  2.45175993688 Dipole_moment: 4.856
 S           0.15257766944165   -0.65013719522435    2.08404210470827
O          -0.70172020745270   -1.71726776223386    2.53689820707911
O           1.12932154656347   -0.17324837059271    3.01852785263698
O           1.03005196825174   -1.31835749208877    0.87214823753660
O          -0.56465500297278    0.42490752596987    1.40085289398850
H          -1.22956393916307    1.01819295642667    0.04428766818761
H           1.33759758158956   -2.11728625642565    1.28916248755105
O          -1.51095055254202    1.50459163746784   -0.76989688902585
H          -2.20637638797190    2.10003489884430   -0.48713166029718
O           1.57712947917784    1.91613483029179    1.29832574221350
H           2.15643945053248    1.48844557354220    1.93651536264997
H           0.72260018512911    1.45438361959844    1.44790940457568
O          -1.88737239934753   -2.21575948993930    0.25257688740149
H          -1.44497378265998   -2.00045134777710    1.10168031542705
H          -2.70535369690485   -2.65701185310216    0.48690444371302
O           1.28225614960700   -0.81263862280187   -1.82468385593776
H           1.32335745651780   -1.14013815126544   -0.91240605582281
H           0.33505544170644   -0.96815270797485   -2.09051731961667
O          -1.32075539323274   -0.96767259803424   -2.09913942430872
H          -1.53933280820398   -1.52939580277861   -1.33250907955586
H          -1.57526827899945   -0.07544069017994   -1.82589137251727
N           1.14423911476379    1.71391007772321   -1.30423989763208
H           1.57953987647849    2.36447001040193   -1.94790752984889
H           1.29848079632854    0.67499173792951   -1.59742532069005
H           1.50313853736514    1.83661502804543   -0.32044400193763
H           0.11453719600972    1.84628044417744   -1.25763918047384
