    26
        -50.45261336  Gyration_radius:  2.53095585859 Dipole_moment: 5.576
 S          -0.63638941306606   -1.60912431722573   -1.49907517971400
O          -1.50937257183830   -1.06494738722368   -0.47921978631384
O          -1.00767549885858   -1.36691918170954   -2.84408920667968
O           0.78201161590018   -1.04020007645049   -1.26698008278610
O          -0.48782776177339   -3.12654074959560   -1.25050568504407
H          -0.40067078710155   -3.24477167969646   -0.26342963747598
H           1.01952004356516   -0.94117296926958   -0.27010140145074
O          -0.07143769185860    2.68578448419458    0.36770612769772
H          -0.33807304385038    3.60367658378925    0.30362497341852
O           1.29302240827915   -0.71911442854444    1.19661599347262
H           1.92909345192154    0.02727432499680    1.16243525765578
H           0.44907212062249   -0.29100941584610    1.51652606596148
O          -0.99881251606898    0.43255340087402    1.69592418390641
H          -0.80372239481776    1.32767280124874    1.37247886354025
H          -1.40594278504037   -0.03585770761421    0.94601014292802
O           2.39733058556102    1.71690445998428    1.09519286640680
H           2.63257580472916    2.15092612371043    1.91674880248488
H           1.56524665419342    2.12677198366338    0.79077096322794
O          -0.28450170026215   -2.98632641253535    1.33030100227132
H           0.48700583849472   -2.42077433503602    1.48645418193750
H          -1.05842656064339   -2.43916653152368    1.50057167990930
N          -0.75051747006305    1.43309028804166   -1.86875518627403
H          -1.20205764047477    1.87304030794188   -2.66218899420521
H           0.07157104151588    0.95529617737534   -2.22197815393732
H          -0.30243830139390    2.25778639164253   -0.50958104663760
H          -1.36858342767777    0.69514785479746   -1.54545672426374
