    26
        -50.46715570  Gyration_radius:  2.58339454697 Dipole_moment: 2.497
 S           1.44763111565525   -1.08615930791555    1.10871084136458
O           2.69935100791753   -1.63735394230948    0.67617583843710
O           1.47600276092529    0.35233080871289    1.37192336011150
O           0.31443432090876   -1.40898666343640    0.24614155152377
O           1.11820170697726   -1.77476654600378    2.50776740525128
H           1.89092362042855   -2.30662957871095    2.66878106964311
H           0.07555708675972    1.12905395959356    1.51295979436319
O          -0.79857086900111    1.59607362826454    1.47915927196675
H          -0.72371654246372    2.34265392967284    2.07450191811177
O           2.68105233796154    0.51168712872639   -1.00689353610888
H           3.01717638266709   -0.38387745952079   -0.87779979230376
H           2.31595891767584    0.73098563385801   -0.13359348796398
O          -2.09596448961663   -0.92926186534119    1.40619107168961
H          -1.88228280007485   -0.02878786179646    1.68679136603055
H          -1.24638758661239   -1.30722321691281    1.11627172046681
O           0.94736102802338    1.30869466257534   -2.87343480941023
H           1.25287875028792    2.16433340910559   -3.17742175009781
H           1.65676984822033    0.95901236134922   -2.28696612458891
O          -3.28106580079263   -0.63415512669734   -0.96385238448771
H          -3.01870620441226   -0.78743872081355   -0.02265990553965
H          -3.44191823935383   -1.50120462176788   -1.33816913349643
N          -0.88800596742019    0.55802788706009   -1.05992956039643
H          -1.84211277511947    0.20204309448952   -1.29211304048523
H          -0.35390833992740    0.92887085994061   -1.87218668663871
H          -0.96836222195350    1.25226349940325   -0.30287407940615
H          -0.35229706801218   -0.25018594137235   -0.64748092801315
