    26
        -50.46741729  Gyration_radius:  2.4807908927 Dipole_moment: 4.012
 S           0.21253411926560   -2.35663082277120   -0.39252773285500
O          -0.51708896660177   -1.52503171543389   -1.34421632155537
O          -0.19439775205943   -3.71910670369252   -0.29989106528480
O           1.71322850239772   -2.35619588775181   -0.97075670554864
O           0.31776153770566   -1.67225049217845    0.90087238600337
H          -0.88466965611424   -0.78090220330692    1.45146257065479
H           2.00382431146819   -3.22646109308756   -0.72224663056327
O          -1.57940410173877   -0.16661322312414    1.80891079702977
H          -1.96233253262925   -0.61524924039994    2.56407945719916
O           2.04725090124311    0.33248407973336    0.87307598929972
H           1.53183040902733   -0.49106274790371    1.00702569364550
H           1.50690839737405    1.03642372663131    1.26647371180058
O          -0.57790929322139    2.39975837784014   -1.06506496201540
H          -1.36816701488487    1.80691275799386   -1.07739537180456
H          -0.37045732229520    2.51545150615947   -0.12382259737847
O          -0.03572912614635    2.04244210158626    1.65404844455716
H          -0.64648368275823    1.28055460199811    1.75338996454586
H          -0.19650314461197    2.62702702147256    2.39549800463929
O          -2.35501986856451    0.43662764543041   -0.81136824455237
H          -1.85921766792842   -0.31982545359802   -1.16653132099457
H          -2.35948162616757    0.29633626038036    0.14614805424557
N           1.13510873915215    0.49454249493526   -1.59705993214075
H           0.50926113415751   -0.35478282900918   -1.61340812341756
H           1.73461782998983    0.51702090648770   -2.41358130423534
H           0.49968211618158    1.35509537300954   -1.52546576640035
H           1.69485375774553    0.44343556858558   -0.69764901488024
