    26
        -50.47398922  Gyration_radius:  2.40014891302 Dipole_moment: 6.586
 S          -0.86661537238559    0.09085496346954   -1.35251388749444
O          -0.52622179035551    1.48796022382796   -1.53600732862823
O           0.21693172345101   -0.82506208888586   -1.62254345085434
O          -1.40606541615561   -0.12290785794272    0.01013065771538
O          -2.02346317658241   -0.27853393582378   -2.33568130176847
H          -2.70279920497042    0.39253374066687   -2.13327786124716
H          -0.56597018254597    0.48794144900680    1.23906836230017
O          -0.01235262333534    0.79441858216322    2.00496915525653
H          -0.62574498052451    1.10487020819363    2.67265718444119
O           2.62640660172710   -0.36726199108403   -0.58518028764544
H           2.49426185424090    0.59717431622702   -0.41814574659284
H           1.87971414945017   -0.59922627835097   -1.17406676609823
O          -0.45068276702983   -2.56416431515290    0.33890262959926
H          -0.12582062307684   -2.62219707104804   -0.56852893811421
H          -0.98757621783803   -1.74319500360852    0.31830861605891
O           1.61268573170144    2.00368668852073    0.00352660531127
H           0.89759894248530    1.96518206114096   -0.66061806361386
H           1.17636668678145    1.85487746946173    0.85195826163918
O          -3.14088004842869    1.75928239413353   -1.07205241523113
H          -2.25790866178490    2.11103081753530   -1.27267112684375
H          -3.02446211372501    1.24157482928069   -0.26774065875222
N           1.57944462406550   -1.36988641350453    1.54536015197553
H           2.17120275935733   -1.86067538464764    2.20553745506509
H           1.10838617363383   -0.55566614240763    1.97727272327048
H           2.13964243261440   -0.99056136860008    0.68207755997120
H           0.81392152923515   -1.99204987256996    1.14925847027781
