    26
        -50.44215806  Gyration_radius:  2.63135279558 Dipole_moment: 4.341
 S          -0.45244118544998   -1.37900867820006   -2.02263556697391
O          -1.42546514399090   -1.26958020357235   -0.95288264354284
O          -0.96905020782456   -1.45386857210703   -3.33715322817513
O           0.50843995976893   -0.15051877838229   -1.86923437424983
O           0.48648929323342   -2.55554858186025   -1.75272864726943
H           0.84076119455152   -2.53058390346624   -0.78766841954352
H          -0.10876780364157    0.60902978442234   -1.51781079986681
O          -1.07504722450984    1.43958000363285   -0.78692659269591
H          -1.79770653465550    0.80133509810154   -0.78412099907819
O           1.33964474715943   -2.34286187958394    0.62466782664154
H           1.86711520203406   -1.52222244715758    0.58084456678706
H           0.54148825958536   -2.12794160805561    1.15139613068247
O          -1.19040868214896    3.89410705509461    0.78662512614850
H          -1.22177082479613    4.74993047406390    0.35701651833104
H          -1.26357665482428    3.23183531953726    0.08726860808254
O           2.50038551681626    0.03814949556443    0.01122933603111
H           3.38393018778254    0.04663379593783   -0.36101999377165
H           1.87971475583204    0.07004675414251   -0.73933558960592
O          -1.04613803330747   -1.60943172890026    1.62937154780558
H          -1.27797411507344   -1.45258072761073    0.68517338952509
H          -1.65050510992861   -2.28427460957968    1.94268301448245
N           0.07793339855810    1.14005317552024    1.50060145984057
H          -0.62491835595230    1.34240248556267    0.14620695632718
H          -0.30961510193288    0.33493305223043    1.97831577966295
H           1.07440580405502    1.00525660696849    1.38299737126002
H          -0.08692331133912    1.97512861770130    2.04711922317048
