    26
        -50.44785029  Gyration_radius:  2.50085669389 Dipole_moment: 3.403
 S           1.55730802506258    1.02159677783881   -0.52038117408187
O           0.20945031553612    1.31426137605771   -0.10360265010027
O           2.57110782395578    1.86217638691274    0.01217820167840
O           1.85516988820588   -0.46702897997666   -0.14252612620938
O           1.61320179878024    0.97676448482441   -2.05054418300230
H           0.79967982944498    0.46378021327216   -2.37777689024760
H           2.11463917892645   -0.39850800052111    0.84412969548201
O          -1.34397310010974   -0.52402661383813    0.97946825742078
H          -0.72943205703706    0.15751821732074    0.62901974220868
O           2.33481607649120    0.11010207805158    2.25141413496392
H           2.56405091886705    1.02254667632573    2.04230692958380
H           1.46712878484166    0.11755088851875    2.72823558995708
O          -0.37420905741992   -0.44966110457057   -2.80309189560321
H          -0.12749676922680   -0.90445002180236   -3.61150615744531
H          -0.40663650899718   -1.14953562406982   -2.08537482170988
O          -0.23997270021638   -2.16495956716636   -0.84637925148267
H           0.67399257785030   -1.97394552664963   -0.59992176826161
H          -0.77705113753677   -1.75023574033312   -0.13687735137880
O          -0.08429342176706   -0.08701848650184    3.35045345499773
H          -0.66242471294225   -0.23645234856275    2.57588991728968
H          -0.16378536997468   -0.86584790228762    3.90425253792823
N          -2.71754245774430    0.86832298711121   -0.94102433189739
H          -3.51859487258795    1.45864482583711   -1.13066248330793
H          -1.92355630460934    1.47683137970652   -0.76205050782079
H          -2.19240593769412   -0.24705128133467    0.59038254519086
H          -2.49917082011849    0.36862490577627   -1.79601140434541
