    26
        -50.46497964  Gyration_radius:  2.67639919041 Dipole_moment: 2.539
 S          -1.56778064559426    1.74730263742662    0.40962301841922
O          -2.64688998342497    1.77152822900841   -0.55032128668040
O          -1.30673102409574    0.39513575884681    0.91332012916471
O          -0.34836907150210    2.37553330805340   -0.05860319491519
O          -2.05340564729925    2.59339126357898    1.66103551783007
H          -2.97079763720359    2.34996970607645    1.74082567434117
H           1.12667578588579    1.73608002846285    0.06779505426801
O           1.97587491548463    1.22354054784079    0.05233561873921
H           2.67841803871118    1.87060541969696   -0.01869457151777
O           0.60465768199499   -3.15214874412175   -1.08096822960162
H           1.37353543789405   -3.57676900841476   -1.46339876520317
H           0.74725608766596   -3.15545902051590   -0.10216975584309
O          -1.11973112615151    1.25503038900851   -2.63175283407256
H          -1.83359078596166    1.42072209041159   -1.97594947197240
H          -0.59787007314145    2.06129710541594   -2.62185415202581
O           1.05301608570722   -2.92912836455378    1.51910621785546
H           1.09140603128782   -1.97511022838300    1.77836625284378
H           0.41689768375568   -3.33069829895520    2.11238420367475
O           0.97429158681821   -0.34448801439165    2.14269433422195
H           0.07471215908481   -0.07096144299370    1.88418210732861
H           1.56384845903788    0.18039067910196    1.58217652827149
N           0.16382348344416   -0.50928587924414   -1.09125281926502
H           0.27657589065597   -1.53795773819429   -1.25047458687819
H           1.06827152286098   -0.07432431694612   -0.86092520876955
H          -0.27702521920291    0.00976597326040   -1.88804879859145
H          -0.46706964669398   -0.33396208948132   -0.26943097162035
