    26
        -50.46519569  Gyration_radius:  2.42787946209 Dipole_moment: 5.336
 S           1.29800260589178   -0.39185873858650    1.27940988012886
O           0.88294524136426   -0.76845540008151   -0.05424149622157
O           2.43404593119305    0.49196646408252    1.29173112809495
O           0.14967441090596    0.15971072389311    2.02830252896080
O           1.71046599042807   -1.71419295089879    2.03595538819141
H           0.94515043426618   -2.28477639495612    1.91107151933815
H          -0.75648667367882    0.99613030457617    1.05056368335627
O          -1.36654572046693    1.51489949514183    0.45343634756113
H          -1.67528504703856    2.25454471568160    0.97928757375233
O          -0.49027431681371   -1.16709562807699   -2.26815110819278
H           0.19187649659327   -1.36034862437280   -1.60208720430082
H          -1.32673881001757   -1.23996581188948   -1.75307256754848
O          -1.05666742316765   -2.11724747607575    1.83915093437458
H          -0.69469251297226   -1.20768516925493    1.96523597756786
H          -1.58050046816747   -2.31708147705782    2.61781997800282
O           2.50996736326522    1.65027914539178   -1.05072274939940
H           2.52215677358778    1.11304357743351   -0.22151253704296
H           2.95322347020419    2.47068567833542   -0.82657620824755
O          -2.39235820403771   -1.03207797060743   -0.38906454742091
H          -1.96933512554184   -1.58898318298846    0.28485642643274
H          -2.22317411261306   -0.12251304167551   -0.10849072627092
N          -0.01729290608340    1.35967592752809   -1.91288280246864
H          -0.26583573537710    1.99440084369550   -2.66341866890891
H          -0.20275349151775    0.31997946944476   -2.18063299341153
H           0.99576547471955    1.45020587607039   -1.65143758321595
H          -0.57533365491886    1.53675961523436   -1.05453017311323
