    26
        -50.47096515  Gyration_radius:  2.40551151534 Dipole_moment: 5.279
 S          -0.09235104648556   -1.05448101182449    0.91650201053454
O           0.87485815167702   -1.33565231329450   -0.14833462326198
O          -1.37245986717132   -1.68283282744206    0.64318471860053
O           0.45879823538357   -1.64017261358919    2.23665241228404
O          -0.24133181212638    0.39143654006959    1.10243778146702
H           0.27460903278529    1.39205268991907    0.03654744551535
H           1.24876171338569   -1.06969323909811    2.43814694650773
O           0.47942280391445    2.04384948585853   -0.69913072634907
H           0.41756235231719    2.91261810680591   -0.29824097327332
O           2.58473911828165   -0.16748853771043    2.53663127743597
H           2.72580920262426    0.18109762470278    1.62053344646326
H           3.33490347344016   -0.73794779233368    2.71835193304591
O          -2.86406456101689    0.42837002216355    0.37772925715793
H          -2.47896481571109   -0.47380320425283    0.51128063942419
H          -2.35816820098745    0.95884098585724    1.00381481782787
O           2.80612341381672    0.44394138239919   -0.03108078822709
H           2.34440772584119    1.21531191900606   -0.37872946567318
H           2.18845154695327   -0.30187572734973   -0.19176812868966
O          -0.83674742134349   -1.68872094115306   -2.06333664440383
H          -0.04193881483333   -1.62844466770301   -1.47986577963264
H          -1.47041789821056   -2.15000739398672   -1.50077911353469
N          -1.60513592339354    0.81470902238372   -1.89838486550117
H          -1.28291520962117   -0.18855223398204   -2.09943366232808
H          -2.23134933633807    0.74031228492926   -1.03239292004215
H          -0.76986465038804    1.38227630775063   -1.62796688097213
H          -2.09273720271444    1.21485613187142   -2.69236812444581
