    26
        -50.45831819  Gyration_radius:  2.67568141432 Dipole_moment: 3.250
 S           0.48872084059170   -2.54867772361926    0.21200979642277
O           0.43310099240949   -2.26592611443768   -1.21926173907189
O           1.70711536458471   -2.13534627519547    0.84551083778818
O          -0.69421785724636   -1.99549444883461    0.89129956588790
O           0.37150550902168   -4.12802009849204    0.33809961719098
H          -0.22289449550018   -4.36957429038082   -0.36728548272994
H          -0.04831121626267   -0.64742519640255    1.67737341243542
O           0.57276222022333    0.09698650652818    1.84188851637124
H           1.39478004064706   -0.35545952714997    2.06448482595693
O           2.19635797782500    2.56021444625355   -0.98168791090389
H           1.50742251150536    2.79919713339614   -0.32490321463811
H           3.00489977900003    2.98559062836924   -0.69647555332803
O          -1.70670764543385    1.48817634094687   -0.98117528025592
H          -2.16659478424339    0.68552392403034   -0.62055269129918
H          -2.18661393440908    1.74136995841237   -1.77058645166191
O           0.15998719033717    2.74377771628048    0.81646538791206
H           0.26725994862138    2.00308463144211    1.42853985735505
H          -0.62726271365714    2.54107480091137    0.29429358822160
O          -2.76902076699628   -0.73404103377450   -0.06904170422481
H          -1.99138448958997   -1.27433758890190    0.21282562272161
H          -3.34068679275245   -0.69197887494120    0.69970778854722
N           0.74509064727466    0.29764108579488   -0.88459218171310
H          -0.15569825248696    0.76769519662967   -1.11340440907683
H           0.73142369047322   -0.70205525713013   -1.22089232261969
H           1.52201523676461    0.87916540772520   -1.23179389629216
H           0.80695101932592    0.25883863252861    0.15915401101503
