    26
        -50.47361573  Gyration_radius:  2.43367085802 Dipole_moment: 3.321
 S          -0.09721818175636   -0.21978739410354   -1.50199191754526
O           1.13833545477210   -0.61469460408833   -0.80581524091992
O          -1.25262033727613   -0.87533841514347   -0.92031163929049
O          -0.22246163128052    1.22541763933937   -1.52586044917964
O           0.01062865255913   -0.73415368565395   -2.97177404356654
H           0.80771662597775   -0.28807476475502   -3.31400829830296
H           0.72665928268769    1.84031005215027   -0.27181262770642
O           1.34471840744619    2.02240808456259    0.46709223233060
H           2.10595367095217    1.45996646071778    0.30972568996706
O          -1.81934062745277   -2.52161576789020    1.07970115217158
H          -2.59539957982381   -2.11765706673960    1.47543481534510
H          -1.71567729591805   -2.08987129232209    0.20753451784474
O          -2.18754750787744    1.07212453946143    0.65709697188333
H          -1.94812151436480    0.34156724637154    0.05547062426009
H          -2.04904295792950    1.86673873076481    0.13553613119403
O          -0.17835547649882    1.02315742917697    2.43329796507473
H           0.43499514865874    1.56006399482313    1.88658722385934
H          -1.03888840421099    1.09514803864114    1.96402411398813
O           2.18722340929693    0.77892384437496   -2.85930449005622
H           1.67172865639092    1.57137044258537   -2.67316695362734
H           2.18392869873016    0.26421527727323   -2.03713071562488
N           0.51681266697911   -1.35266641827383    1.66023309562371
H          -0.35814986371553   -1.92829333294853    1.58125765030509
H           0.83987918670394   -1.14620177939593    0.67839947300691
H           0.25895123949915   -0.39574325995947    2.10322859603596
H           1.23529227743803   -1.83731401899487    2.18655610291361
