    26
        -50.45777598  Gyration_radius:  2.47459859091 Dipole_moment: 6.814
 S           0.70873513530264   -1.76239871272724    1.12760795990615
O           1.39329064022151   -1.78904670427401   -0.17666618205541
O           0.95159513205234   -2.88147767161610    1.96660060020365
O           1.27207514630537   -0.48079326191513    1.86824158376543
O          -0.72408764568031   -1.47948430899750    0.90507844728021
H          -1.20734290864463   -0.49553012611990    2.17219917818987
H           1.26582681424653    0.23584607363540    1.20436312006555
O          -1.37031433192363    0.26356163223788    2.77342019066805
H          -0.60378477142733    0.29070352441376    3.34993484448686
O           1.12677490046025    1.66172314642407    0.25723877265659
H           1.54301761928509    2.37644375547573    0.74244147215009
H           0.12780892317587    1.80334337055222    0.36673966402182
O          -1.39458426292112    1.89987492022969    0.65244002214341
H          -1.48459965041724    1.43848568418677    1.51810440937281
H          -1.81294454606950    1.30646399234325    0.00911710373597
O           1.78174412321632    1.26548024984594   -2.31983553934477
H           2.69302782306337    0.96700650149775   -2.29540000403306
H           1.55482474522210    1.51483756628042   -1.39772925215112
O          -2.13134264864421   -0.31252078982753   -0.87920528872428
H          -3.01124454479047   -0.69137849148249   -0.86428015141076
H          -1.62279056847852   -0.77902861693637   -0.15328496036499
N           0.17169630500075   -0.87300439188994   -2.19836128339321
H           0.15903168466999   -1.52842861119503   -2.97124621473392
H           0.72922408841189   -0.01661220327501   -2.42967214664619
H          -0.78941837446696   -0.61228633261891   -1.90905856089121
H           0.67378119275027   -1.32178018419286   -1.31878777496371
