    26
        -50.45784780  Gyration_radius:  2.49867392478 Dipole_moment: 6.071
 S           0.01716198525958   -1.65671472055813    1.58966473700404
O          -0.91201935652050   -0.63996465819259    2.05817678262967
O           0.23157938504967   -2.76818388446242    2.45707979052345
O          -0.69560761072990   -2.29731936020695    0.27626775106303
O           1.22721814873722   -1.02502502494728    1.05906615241337
H           0.90332468536997    0.49010756144612    1.11667026758369
H          -0.67126309679435   -3.20587126197733    0.55469752672401
O           0.60591751584169    1.44694594455805    1.12857399325492
H           0.04753812559033    1.48655252657117    1.91022170083583
O           2.34923500836963    2.08824298579802   -0.92254646431561
H           1.84231572263190    2.02603860948459   -0.09924980364526
H           3.24778346183554    2.31173216668251   -0.67532384474079
O          -2.95964668088741    0.14335973310831    0.67217077610320
H          -3.60722056879752    0.44184264451866    1.31186079610046
H          -2.22015565626354   -0.25393098137502    1.20002344879786
O           2.16696116944578   -0.64189304166422   -1.45243468767687
H           1.99151883392332   -0.90175010230679   -0.52986412019455
H           2.31543489671783    0.31929895457495   -1.42791625870941
O          -0.33821600383284   -0.92427853857579   -2.13763493969057
H           0.65348518574477   -0.87287583071095   -2.05805907231170
H          -0.60294901669014   -1.57002092315420   -1.46694636529281
N          -1.12488401173683    1.23030944060088   -0.92547505628276
H          -0.80173415926996    0.37767979996694   -1.51590099695021
H          -1.99320615077706    0.93582230105822   -0.42276944454992
H          -0.39751645810388    1.41576151092432   -0.18956143183990
H          -1.27505535409289    2.04413414880674   -1.51079124684499
