    26
        -50.45978006  Gyration_radius:  2.64210335319 Dipole_moment: 4.541
 S          -0.39586703500642   -2.20828873651041    1.35824150088979
O           0.66738143411696   -2.16855851971690    0.36597604695876
O          -0.70363461837061   -3.50053215096520    1.87858560485645
O           0.15874804419263   -1.36125250933451    2.62043055102657
O          -1.54109113211722   -1.42077660255990    0.88745753573463
H          -1.22648257522234   -1.12747497378066   -0.67146917364590
H           0.28287588667546   -2.07433428249980    3.23664438768325
O          -0.91875044161512   -0.87988942760733   -1.58033298298982
H          -0.55074697584900   -1.69005265155081   -1.93812530377131
O           2.84065537269307   -0.74316517268089    0.37462033472409
H           3.51583405255881   -1.26776788342430   -0.05762648203055
H           2.06122066079978   -1.34296497611759    0.48320004003922
O          -1.98033554578997    1.78493609464366   -1.08505965558201
H          -1.92453364480889    0.88240623922277   -1.42186026716751
H          -1.89776253812959    1.71263658724489   -0.12659508416168
O           0.22104608192171    3.04665358322869   -1.98910516009029
H          -0.67177832787143    2.75156923759385   -1.70080727210352
H           0.12837392607829    3.35700598464972   -2.88985739882174
O          -0.83214860511682    1.00308957464932    1.46735051491713
H          -1.17961882139715    0.09045742291525    1.29770608144768
H          -0.47405415216350    0.96328583930428    2.35649916955121
N           0.91296843723980    0.85194943698656   -0.58470472221483
H           0.98192835771526    1.71415646107280   -1.15139690990744
H           0.33589687708791    0.14390708502158   -1.09763679388227
H           1.82286653809166    0.42504662782963   -0.31650483123685
H           0.36700876428849    1.05795769239230    0.28437026977498
