    26
        -50.47186312  Gyration_radius:  2.45046470903 Dipole_moment: 2.265
 S          -0.09832907379783   -0.74338024393904    0.38455606160793
O           0.73844520366372    0.44801458952807    0.11482426449079
O          -1.49683578869400   -0.39739072336141    0.44876487859920
O           0.18127854029594   -1.77716581928266   -0.60490061958437
O           0.30446328682132   -1.25672906364103    1.79061702945048
O           2.74265332158944   -1.17388057158892   -0.87372098829480
H           1.84367825039894   -1.53975587937564   -0.99580057215908
H           2.58202955432745   -0.24990463635732   -0.65082176524770
O          -2.44063858279607    2.09738184064945    0.49469618197032
H          -1.79333592343798    2.36480132724024    1.17638920340214
H          -2.44345315569243    1.12524245199154    0.57960940246892
O          -0.27851711339391    1.91369308149343    2.12094730482216
H           0.20769635423279    1.41910369990801    1.43616175423951
H          -0.42632256491327    1.28650215802550    2.83132100473205
O          -1.54110484644457   -0.74145078774355   -2.35182581888793
H          -0.86981847850463   -1.22770724626055   -1.82646927985762
H          -2.37468831374295   -0.94782916779150   -1.92032786124062
O           2.68055241849030   -2.24756468266300    1.53284672473655
H           1.23488225055036   -1.62983111567979    1.75955088892904
H           2.60558700665766   -3.19666728695999    1.41211442534532
H           2.90701865940463   -1.87185884597888    0.64384531916962
N          -0.85091913125255    1.70209807563814   -1.53489289702480
H          -0.05807644632466    1.34020189951692   -0.93859709310322
H          -1.21103156392190    0.84304470821680   -2.02936890586567
H          -1.58610578395244    2.03051155724141   -0.82234996883671
H          -0.55910808938124    2.43052068092880   -2.17716870377911
