    26
        -50.46731856  Gyration_radius:  2.47111727487 Dipole_moment: 6.755
 S           0.01235199796809   -1.19592859106342    0.96957281669002
O          -0.71253689706352   -2.36243631877114    0.49430133193040
O           1.07717634129535   -0.78485395271183    0.08414305653245
O          -0.91625731345583   -0.08448847002711    1.23260491806934
O           0.68547345122418   -1.55631837756614    2.34007837190628
H          -0.06777034708951   -1.82780406008852    2.89574663264318
H          -0.52894800705712    1.35228523791520    0.70512067466049
O          -0.35555041356412    2.24819328472212    0.29793440705274
H          -0.98797790182870    2.84516104493997    0.70042347499148
O           2.40405018347924    1.54628656025600    0.34415416127161
H           1.64714531409562    2.13618796258655    0.43706664051627
H           2.03890676888064    0.65716658310490    0.50630873769992
O          -1.87827991365151   -1.98167274788540    2.92255643566189
H          -1.83964256131905   -2.58152863251689    2.16543165649776
H          -1.90370803669738   -1.09772111288184    2.52841739672769
O           2.39835020754785    0.30166358069571   -2.03348761108061
H           2.22963368450517   -0.52505709496985   -1.56032765762347
H           2.68481627908669    0.90877753856486   -1.31647482372167
O          -1.73678641180662   -0.96963838290240   -1.45894498632579
H          -2.45987851582403   -0.59433120413887   -0.95018353105010
H          -1.30909656677393   -1.60854570226993   -0.84102319097903
N          -0.10657479338357    1.04995626516655   -2.11533282171524
H           0.92691578825024    0.74055173848281   -2.16828484322380
H          -0.70079205942560    0.19779620551524   -1.92841681414758
H          -0.20506435151634    1.66970130918505   -1.28309431087192
H          -0.39595592587541    1.51659734665890   -2.96829012211582
