    26
        -50.44479916  Gyration_radius:  2.47147708962 Dipole_moment: 5.999
 S           0.96731472782648   -1.36511696125070    1.12241523196379
O           1.94821501619249   -0.81782506178266    0.22403920210354
O           1.34020284878906   -2.48823287577269    1.89741210163736
O           0.42385433571602   -0.21863284116253    1.99946063612000
O          -0.29524919460424   -1.77407408521058    0.28039944730098
H          -0.89728859253473   -0.98783669502340    0.11759907025275
H           0.72152459964744    0.64507715370819    1.51519129167401
O          -1.94766252000671    0.17161925650958   -0.08524229555855
H          -2.83382977530305   -0.19425041050886   -0.07899262337916
O           1.45737056594984   -0.30359109116368   -2.39865889184686
H           1.82841620035070   -0.49216751685032   -1.52021036614712
H           0.97829526342346   -1.11180092901740   -2.64478462628664
O           1.19896003644563    1.80573509466289    0.72622996475164
H           2.07400796726174    1.48766723669556    0.48207644749670
H           0.68973580346052    1.84091489364082   -0.14618559753777
O           0.21699021240412   -2.78295307838107   -2.28321770976292
H          -0.04856413606309   -2.59046752255537   -1.37231731554270
H           0.84864506439640   -3.50301322996788   -2.23894102834308
O          -0.07781617841496    1.66878175534687   -1.52000235837749
H          -0.88861897566718    1.19006312313196   -1.30814327968173
H           0.49533760507781    1.02425206790661   -2.00276969766558
N          -1.67132582589343    1.84369034698974    1.93066032863776
H          -2.42829982512646    2.39327844067860    2.31736058477548
H          -1.88071973596790    0.81629376283001    0.69158867674182
H          -0.93946128511929    2.47737265502593    1.62981501854203
H          -1.28003421224804    1.26521650152056    2.66521776814212
