    26
        -50.46854134  Gyration_radius:  2.40521096166 Dipole_moment: 4.509
 S          -1.20023785717959   -0.96326990522402    1.00101908620832
O          -1.67958141278116   -0.69498814226611   -0.35215445035557
O          -2.20075722489217   -0.86658307090525    2.01576958283163
O          -0.73596797696475   -2.50663314188401    0.96950621345452
O           0.04274853507040   -0.25708148208037    1.27460539985197
H           1.45816782695991    0.41851318784451    0.77688997928837
H          -1.48213040246055   -2.95231635590039    1.35662630191075
O           2.32784414030999    0.70095305493236    0.42079241630066
H           2.75464374215316    1.19897791520243    1.11934408721696
O          -1.39983800048459    1.82748645129613    2.17676453548984
H          -0.74430761229195    1.12859317365621    2.03205505210613
H          -2.18610519427083    1.35434224430511    2.46419470556070
O          -1.34291518273203    2.01798558104259   -0.55687147600934
H          -1.64071174958687    1.09490579966941   -0.57086732702232
H          -1.37417320373971    2.27202885927074    0.38201457353265
O           1.00712473238222    1.71660761505279   -1.77436968566512
H           0.16109388550733    2.01937400117329   -1.36504769937063
H           1.62320530312532    1.56732458410842   -1.03621574874978
O           1.82595268413830   -2.00158475201233   -0.32122916542288
H           2.29140897342944   -1.21621985942348    0.00533696441899
H           1.11004453401326   -2.17219897419349    0.30429009174227
N           0.27812378060987   -0.75344888278781   -2.09747677577526
H           0.61845191905826    0.27592632388655   -2.10579594498643
H           0.08569490962395   -1.09806172642686   -3.03088552370101
H           0.98960910269632   -1.33998107598166   -1.59485154641102
H          -0.58738825170876   -0.77065145238865   -1.49344365670549
