    26
        -50.45352303  Gyration_radius:  2.57298269528 Dipole_moment: 7.460
 S           0.22227258111055   -1.68048775899461    1.91157762355637
O          -1.14693964303473   -1.96621978652209    2.26184860840694
O           0.65973424046129   -2.35431689189532    0.70034998098242
O           0.48945777981006   -0.24229078132672    1.87189427768825
O           1.14380830026812   -2.23208051307846    3.08931840292783
H           0.94088504781424   -3.16264732947550    3.09494219715707
H          -0.99084173481811    0.21692194109801    1.49172044512468
O          -1.89863336767353    0.40686083648323    1.13775024403863
H          -2.47095399325601   -0.09582611972093    1.72446496663778
O           1.65178880448860    1.55518593457095    0.31274193551086
H           1.38883312235586    0.86249471596048    0.95348666417359
H           0.82867236842544    2.01130808396715    0.09453393749634
O          -1.24799785399427   -1.48368233752195   -0.78995262025463
H          -1.69740785099445   -0.95696728588182   -0.10537523980967
H          -0.51573792934572   -1.94420774140253   -0.29925525172089
O           2.39705862921803    0.45417065082958   -1.93991218357398
H           2.25554053119789    0.79960034671127   -1.01771140089065
H           3.08587918686346    0.99475632550376   -2.32749807048326
O          -1.03323176084093    2.31839612966688   -0.53834249855891
H          -1.47841257859161    3.15398162774637   -0.39244627823445
H          -1.42406329673094    1.68235610317591    0.09474829811828
N          -0.23180895292383    0.34329158836446   -2.29273172776127
H          -0.54744263876468    1.20824985149570   -1.82727562808631
H          -0.57720495660887    0.28878776994372   -3.24422649482045
H           0.82001009570435    0.31414042429448   -2.26971488371730
H          -0.62326415015134   -0.49177578400873   -1.69493530391681
