    26
        -50.45019012  Gyration_radius:  2.4295640492 Dipole_moment: 4.234
 S          -0.33013002077130    1.28661424324690    1.09463505465945
O          -1.41819593797913    0.45462082610297    0.62984220473461
O           0.08665868359807    1.07211973803544    2.43797345865378
O           0.89342656837229    1.02024127126193    0.15164466734321
O          -0.65486503245808    2.74307193867921    0.82282256710877
H          -1.19505807587139    2.77008762372426   -0.07233469610530
H           1.41128936356041    0.28030909420061    0.60769685451278
O           1.93819292016596   -0.87009964103472    1.50818966180552
H           2.08669952223412   -0.38198463914118    2.32306556514834
O          -0.84900614653390   -0.92533000205505   -1.66685190300447
H          -0.05969570245819   -1.45525587209322   -1.46407985968393
H          -1.13840676472625   -0.53144318739558   -0.82808524800509
O           0.08852034826057    1.39197080951706   -2.56746791834170
H          -0.26623938681070    0.47781863237158   -2.45376833774142
H           0.74821984912772    1.48911315186909   -1.87273052871975
O           1.60328896043856   -2.08206126116350   -1.04564821395498
H           2.24824266587340   -1.83329291181037   -1.71015641932500
H           1.95048536572486   -1.79683062982249   -0.19218243559630
O          -1.90872608647891    2.52917668343607   -1.32890854894403
H          -1.18893024114882    2.20892303086055   -1.94649991484056
H          -2.44469436715760    1.75538574338431   -1.12570000471959
N          -0.40588725055131   -1.99580063490933    1.75654676894588
H          -0.96873282643879   -1.18803457416592    1.49896432158071
H          -0.60220958050821   -2.74177289349210    1.10040239425335
H           1.07173271101059   -1.38055553140599    1.66514631533451
H          -0.69597954841602   -2.29699102818950    2.67748418473148
