    26
        -50.44552010  Gyration_radius:  2.52360753338 Dipole_moment: 7.077
 S           1.54604852768655   -2.04385123031999    0.73309454788069
O           0.11136296076749   -2.10207525850462    0.54958110300841
O           2.29071987231095   -3.18044360885882    0.35631871890599
O           2.08286160155863   -0.80669147668521    0.00003895931595
O           1.79790840759082   -1.72176025187630    2.25158029433835
H           1.07343491850207   -1.19259619481546    2.59771409712781
H           1.76053011399635    0.07604155144152    0.46795659312762
O          -0.20108114634770    2.32350318233940   -0.87274978946980
H           0.00277567525266    3.14860893193262   -1.31334203354090
O          -0.74566680615155   -0.23942508379290    2.17659427932938
H          -0.62488440573120   -1.01380837279028    1.58859502244527
H          -1.50103962727794    0.23643802552857    1.79632869189639
O          -2.31797691015847    1.10846624270380    0.34378821747958
H          -3.13322684954029    1.59467754608799    0.21562349753337
H          -1.60952369913321    1.61927250712038   -0.09545514608035
O           1.19433515369145    1.22898332121538    1.13999581557675
H           0.75113959796215    1.75516576725873    0.43876906328483
H           0.46333092213538    0.82869346042786    1.66875443774747
O          -1.72897342470500   -1.16728806614665   -1.29268118242326
H          -2.09618817644214   -0.48086159658709   -0.71738864246235
H          -1.17372321472599   -1.71558362044251   -0.72035949003904
N           0.45913299761889    0.29688689038123   -2.34864771051719
H          -0.34874566477339   -0.31443413295661   -2.19034140368910
H           0.62561743200956    0.34574860159632   -3.34526683097973
H           0.06271073680755    1.56799067282083   -1.51367396159351
H           1.25912100710166   -0.15165779708477   -1.91482712820564
