    26
        -50.46273170  Gyration_radius:  2.7473577455 Dipole_moment: 2.763
 S           1.39897384678992    0.72322474312706   -2.00976351116430
O           1.00911388426919    1.96671543218157   -1.37066569039730
O           2.13808556630840   -0.17681863877494   -1.14992181416526
O           0.25148935232204    0.06392675960529   -2.63756573416249
O           2.38000723779549    1.12953083693081   -3.19097835913554
H           1.99481283450021    1.93861502636178   -3.51325816553937
H           0.21087536499440   -1.52220716302419   -1.97256474165982
O           0.35343658114862   -2.21217598272985   -1.29072629559940
H           1.27914018207455   -2.07204946122340   -1.05513721294245
O           1.11159313650815    0.94349339174367    0.99152068097124
H           1.78507422358722    0.37642401311705    0.57655127473971
H           0.96958909496640    1.60128642428459    0.27201399983114
O          -2.11151435510153    0.57853983104595   -1.59014906547722
H          -1.22965561018365    0.52513796149104   -2.02697345986735
H          -2.74064362028292    0.23674096826357   -2.22749731922886
O           0.06735192861460    0.72080707062380    3.53324417159894
H          -0.22224939993077    1.59670205217707    3.79329407811839
H           0.56949670065974    0.83526233338828    2.70736819188079
O          -1.74248546330114   -1.22245599282435    3.02140033931701
H          -1.13763242816954   -0.51255384566693    3.32615305396700
H          -1.53107068449677   -1.99852410383142    3.54175956247001
N          -0.97936730563778   -0.71778889115483    0.46882773676217
H          -1.43502545710461   -1.05803152362882    1.33703673576950
H          -0.22234308035294   -0.04408917374604    0.73214428960227
H          -0.52963955942117   -1.48208397141133   -0.10032307752162
H          -1.63741298049951   -0.21762808632815   -0.16578967817707
