    26
        -50.47063270  Gyration_radius:  2.42478447211 Dipole_moment: 5.274
 S          -0.44031328977235   -1.99064637150943   -0.10854309082439
O          -1.41474479065080   -1.55777965271819   -1.09690349591995
O           0.92991429099858   -1.82605356237879   -0.51336504223248
O          -0.70802004132166   -1.37538610798064    1.19675575034895
O          -0.69508527633967   -3.54238283242244    0.07663470348898
H          -1.60946123638275   -3.61248983284684   -0.17502877404366
H           0.27818765467989   -0.31610408806474    1.91274757506612
O           0.78573417993776    0.42639050529297    2.33176303525172
H           0.79583169098180    0.23993578700881    3.27153278416992
O           2.54994631757005    0.22572718263579    0.13426057411402
H           2.10593817681271   -0.59633695605175   -0.14723628779776
H           2.23926168277692    0.37277189045799    1.03664546354928
O          -2.45642434650426    0.41349978413459    0.40190099754011
H          -2.53841955048895    0.03703140037716   -0.48370206400532
H          -1.93749524438816   -0.27516790657422    0.87187699782339
O           1.11634948421699    1.87333878023477   -1.36669041899918
H           1.82404594715554    1.37015502319605   -0.89445222569449
H           0.73456689744127    1.21462334814420   -1.99314523200747
O           0.23032776237823   -0.24262519527273   -2.71920766005951
H          -0.47037158347776   -0.69841903265492   -2.21458540030252
H           1.00124452351124   -0.80700820999103   -2.60837731307949
N          -0.47541655507090    2.15894547970684    0.62792596130551
H           0.04445810123141    1.70439666240869    1.40070661567240
H          -1.34986900625714    1.58273825733382    0.47221644896605
H          -0.70322565960732    3.12035258328986    0.85404959525518
H           0.16303986047148    2.10049303427952   -0.26777950767194
