    26
        -50.46361060  Gyration_radius:  2.45733037679 Dipole_moment: 5.323
 S           0.78731303972467   -1.32875626583094    1.53576204308506
O           0.44209557058403   -1.37777964879306    2.92418167494873
O           1.74892964743574   -2.30909237253006    1.08347237385061
O          -0.59246229275745   -1.74695302074116    0.74824105258571
O           1.05723950991518    0.00459985312207    1.01356411742997
H          -0.19280326654272    0.60076499855640    1.93514472396645
H          -0.73979375515343   -2.62355889612844    1.08983754190235
O          -1.03197020502011    0.87426895328572    2.35658554621305
H          -1.15223865322114    0.21589706295291    3.04639888070112
O           2.43137788108605   -1.38395886252374   -1.22947300710033
H           3.19788109968423   -0.85860693476618   -0.99010858128564
H           2.14442728564705   -1.80205271284327   -0.37507380114856
O          -2.08803992983443    1.83491970511950    0.13539715735738
H          -1.79453459522637    1.46058052507593    1.00004756311894
H          -2.76932501195914    2.47704370723550    0.33810896221253
O           0.60231564128204    2.18195305452231   -0.51325994411849
H           0.92885851940618    1.56049091985913    0.16205838749276
H          -0.34598129526542    2.27720481924539   -0.31759609636165
O          -1.82793603107380   -0.46813160392517   -1.34304993023891
H          -2.08413477981369    0.37102856395894   -0.91979018906961
H          -1.51426097106884   -1.02654628151920   -0.61332014463405
N           0.56414152746513    0.21163669157818   -2.24625339424116
H          -0.40962963486359   -0.14892301530568   -2.03389336544430
H           0.69941238248713    0.36206300981398   -3.23939654376463
H           0.65779601197955    1.11146194842418   -1.68260890378088
H           1.28132228510686   -0.46955417780374   -1.86497614370089
