    26
        -50.46555049  Gyration_radius:  2.45611402764 Dipole_moment: 6.225
 S          -0.85621313954349   -2.06962822743131   -0.29834801252585
O          -1.01366814213707   -1.83118314144781    1.11952334443713
O          -1.20376070696666   -0.91873340998652   -1.11736550856700
O           0.46449856725292   -2.59036536241537   -0.62150602325107
O          -1.89405361290715   -3.20263849648681   -0.68301865119709
H          -1.68798872257303   -3.84550327040647   -0.01424576523951
H           1.52928852827772   -1.55090724603035   -0.22127229950118
O           2.23616607262671   -0.86197641045020   -0.03957873859841
H           3.03330998722320   -1.36157140768192    0.14465997908738
O           1.49258817824124    1.23027545910766    1.45192451557875
H           1.74357979492886    0.42616847285622    0.94166184625881
H           2.13000320139172    1.31658785490589    2.16180029295945
O          -1.18658148396197    0.58315229409289    2.20745638865026
H          -0.26386543833728    0.85720514609720    2.11487133422965
H          -1.19467931543046   -0.35856245386060    1.93726742319624
O           0.87686980314975    0.29899223933425   -2.19582308695790
H           1.58950754091412   -0.11267306516552   -1.68578455161709
H           0.08186631671225   -0.24030994972733   -1.98394743471827
O          -2.20868958929619    1.32450265546355   -0.10537419861899
H          -2.04083154799438    1.13258080920517    0.85123067663476
H          -2.05568782199903    0.46298671551937   -0.54790632761467
N           0.09994543040635    2.29950405555758   -0.68634696566120
H           0.65205314366902    2.18088943576899    0.17330340257330
H           0.15053527045609    3.24841388226145   -1.03696327010289
H           0.45927342065342    1.58820296045664   -1.39965388937870
H          -0.93346575475731    1.99459047046424   -0.46656451005882
