    26
        -50.47267082  Gyration_radius:  2.4855167079 Dipole_moment: 4.099
 S           0.01774261250399   -0.38602362658188    1.54360474764572
O          -1.14411576693831   -0.89371440837306    0.80732876528021
O           1.25031923968667   -0.62644026008564    0.82522614393716
O          -0.17643119785170    1.02566416942548    1.86432085365470
O           0.11066963322515   -1.17939208181200    2.88317444089698
H          -0.74048441205492   -0.97550000145547    3.31580646180945
H          -0.23173829675737    1.95187041815152    0.55478723262948
O          -0.30480846645990    2.45533767552137   -0.29820135977892
H          -0.47008909696505    3.36747998519757   -0.05415862411934
O           2.07774181789507    1.12487169403267   -1.07902886543073
H           1.97326842349387    0.51562968941286   -0.32655694004900
H           1.42886514227479    1.82386484691603   -0.92434545317217
O          -2.28307578157242   -0.08383999841355    3.15054795225652
H          -1.76252185279352    0.70086494458263    2.92527585481365
H          -2.44669072400598   -0.52096045181300    2.30452130014156
O           0.94969746676086   -0.56919082283337   -2.79111172431124
H           1.53762593209962    0.08834560930864   -2.34934252552510
H           1.13356281949648   -1.41394049523686   -2.32431923071351
O           1.37554090954109   -2.53172363083523   -1.02782181023590
H           2.23534314339854   -2.94109126217594   -0.91742947492105
H           1.27896453214395   -1.90538480180012   -0.28028108901465
N          -1.18799030814628    0.19847079336979   -1.57492828520039
H          -2.06295504392562    0.10265834834046   -2.07836498721487
H          -0.33602420486536   -0.16036933405285   -2.17029737892951
H          -1.00851514243583    1.18092348340417   -1.31126894140465
H          -1.21390134789482   -0.34841047223491   -0.66713704300040
