    26
        -50.42881809  Gyration_radius:  2.44197251738 Dipole_moment: 7.951
 S          -0.55308638166024   -2.48859821600917    0.63605637324827
O          -0.30535312940827   -2.36530741844930    2.03809712984779
O          -0.89716749991207   -3.74248349070908    0.07377592965961
O          -1.62163708550424   -1.43301301296984    0.21582844521607
O           0.70208831260207   -1.94868476284458   -0.14384961834118
H           1.24930524506737   -1.29372208125692    0.46558721206251
H          -1.58779569753247   -0.73687935252190    0.97686498997969
O           0.37451974854425    1.66196197950789    0.70732579542701
H           0.54785033338694    2.45979844802478    1.20307333859183
O           1.63188741134314    1.67430911981890   -1.50080671418301
H           1.49635330430040    2.52473595357486   -1.91963141550711
H           1.16180393419930    1.73194028333674   -0.59019067826425
O          -1.73352217456877    1.41441751307788   -0.77938750755192
H          -0.96859956129268    1.62646761915901   -0.16460613616977
H          -2.40314301309350    1.00577539093618   -0.22719973706099
O           1.96638923345675   -0.23353735463608    1.16131418629787
H           2.75791086036199   -0.04014885813030    0.65467402410024
H           1.34237499374756    0.57912745971616    1.03201547914923
O          -1.24492869180780    0.18321093747411    2.08908267713893
H          -0.74021425019502   -0.49515921072595    2.56048523902368
H          -0.58068937161820    0.79769212531745    1.65121373633035
N          -0.12290395993343   -0.19886393276551   -2.05930813739002
H          -0.94038983790356    0.33910722070364   -1.61915536010984
H          -0.33252171939525   -0.51564271805770   -2.99899924871459
H           0.68708079354939    0.49159915882509   -2.02353652796468
H           0.11438821326213   -0.99810279039040   -1.43872345481257
