    26
        -50.47093214  Gyration_radius:  2.42787758011 Dipole_moment: 2.532
 S          -0.35957356815980   -0.61603742657326    2.08840889800683
O           0.44077104800322   -1.52704386803089    1.27693193348868
O          -1.75561132849474   -0.95015791149424    2.13518593810631
O           0.17979552896867   -0.75647376358301    3.57759317449569
O          -0.11434195464502    0.76996472204595    1.69943779564919
H          -1.43154159686249    0.88100236800221    0.73243213485813
H          -0.54279841261950   -1.21317103254570    3.99578177153386
O          -2.14810286253872    0.87169526381090    0.05705837038335
H          -2.93065061824781    0.60413541518752    0.54430987404556
O           2.31417488174329   -0.75734117764138   -0.35847557562735
H           3.06631227748389   -1.32757809358260   -0.19423152159294
H           1.61544949054777   -1.04248136508768    0.28618886983198
O           1.62928392053521    1.86454106765561    0.03981149218010
H           1.06136748633441    1.61024136361478    0.79733349776743
H           2.13929330283686    1.05730285570188   -0.14685201373649
O          -1.26811200335482   -1.69045171502710   -0.79727514427697
H          -0.71911463139372   -1.84493427948044   -0.00923907852892
H          -1.82203172648284   -0.93119135320172   -0.56685773483158
O           0.55309893694673   -0.77070899856499   -2.47021704373142
H          -0.15902817855920   -1.27157490436074   -2.00043892750515
H           1.32701088198451   -0.84848252707613   -1.88331677356772
N          -0.23191586390157    1.60344146900162   -1.78099593182162
H           0.06764414040376    0.64914317612717   -2.20029768475041
H          -0.33967114595991    2.31749236989365   -2.49181831125782
H          -1.10797857881708    1.46419778326259   -1.25844457615258
H           0.53627056449467    1.85447059174360   -1.07201346290577
