    26
        -50.47186265  Gyration_radius:  2.45026210101 Dipole_moment: 2.251
 S           0.04731695717650   -0.73405660790618   -0.41392180067165
O          -0.01541592137510   -1.09229362238286   -1.92073639273786
O           1.44068609019017   -0.72496327754659   -0.04238675940258
O          -0.55497670640190    0.61146229391440   -0.27475016267318
O          -0.73190302943786   -1.70455210694604    0.34556269319577
O          -3.06222083303711   -0.52162990847844   -0.06462377629595
H          -2.34507231531303   -1.09602835529667    0.27080173181890
H          -2.64209427916688    0.34282156178375   -0.13915486797316
O           2.86768978099424    1.47782265087961    0.43563467613829
H           2.52803787402971    1.91279746363319   -0.37101928777980
H           2.68703962979836    0.53570721441417    0.25671340034560
O           0.56590727248625   -1.16198986133978    2.60585062328146
H          -0.00399436852778   -1.45871988690584    1.86396310329354
H           1.42556457527747   -1.54565732297231    2.41264957408325
O           1.30716579526922    1.86383780030540   -1.74799671894714
H           0.54350421187520    1.47436012142483   -1.28414543971192
H           1.52328976472994    1.24432084106308   -2.44752207942227
O          -2.51524519010780   -1.49348807788127   -2.45301790745239
H          -2.91077641298165   -1.10753534336089   -1.62996392203111
H          -0.97002430299985   -1.23269410311536   -2.19431328081606
H          -2.69035237359785   -2.43645803547093   -2.41897222860633
N           0.69590059072951    1.40061881112597    1.87779989426023
H           1.66376048789159    1.57004337090703    1.44110398876779
H           0.69729604937776    0.46500776525417    2.36446468731648
H           0.38846117751321    2.15556730920493    2.48095191326825
H           0.06045546562807    1.25569930568926    1.04702835875013
