    26
        -50.46101056  Gyration_radius:  2.39707168346 Dipole_moment: 7.694
 S           1.43053742482489    1.02589239916538    0.96915225087578
O           1.42846813431616    1.56719623021266   -0.39359096295462
O           2.67281890355408    1.10774815208400    1.64853608401178
O           0.36894819468301    1.89014251741311    1.76982625346029
O           0.84535271282092   -0.33478218206489    0.95575499055346
H          -0.33419932149703   -0.58257757091996    2.09993357144173
H          -0.47115429698816    1.76409132812076    1.29709332505442
O          -1.19137178567390   -0.57641830288591    2.58598173358216
H          -1.01053538443901   -0.13730358043513    3.41897148180817
O           2.49607640918923   -0.96142877196788   -1.06199173600824
H           2.00993345050144   -0.87420809817318   -0.22434152856039
H           2.86198869146895   -0.08740928578780   -1.22014432303072
O          -2.02573360612321    1.09720687811675    0.69634418975650
H          -2.81375818680722    1.56513828297332    0.97773830929597
H          -1.88241860758410    0.37123715256378    1.35245043640625
O           0.35096951514470   -1.55337965902796   -2.56950079681047
H           1.24116461055656   -1.45663597430754   -2.16052450163979
H          -0.15658180257976   -2.09704389843848   -1.94931347570755
O          -1.08822111297412   -1.78331762326175   -0.26140523781422
H          -0.34428772531058   -1.30918665265679    0.15407537289043
H          -1.52386286033338   -2.24844402607336    0.45409020887920
N          -0.59826534313440    0.73281543115794   -1.72416580645016
H          -0.92560227110773    1.38526907512781   -2.42795573664905
H          -0.28210201326192   -0.19873647807305   -2.16520318939825
H           0.26320497040611    1.13205490697376   -1.20563458438495
H          -1.32136871959892    0.56207975023850   -1.01617633870150
