    26
        -50.47513880  Gyration_radius:  2.42353503777 Dipole_moment: 3.748
 S           1.16993042065477   -1.47993752675237   -0.09776361676107
O           0.41503571578279   -2.55971345236933    0.50708345781834
O           0.52213726429607   -0.89247762761415   -1.25137893326214
O           1.54748623301708   -0.47027530706312    0.88714792089168
O           2.51583988559934   -2.12225278274061   -0.61581942562008
H           2.71988228147038   -2.69311339748793    0.11579327085018
H           0.22417489638378    0.31982229229089    1.56797227926238
O          -0.64847717896086    0.69832011990000    1.80828187722689
H          -1.23678346303246   -0.07350287407108    1.85403867962020
O           2.60735886172906    1.85448115381786    0.18385912052028
H           2.31957105259837    0.95474498108297    0.44694461746724
H           2.55053314120506    2.39156149525129    0.97575124041749
O          -1.89527491328723   -1.70114047693069    1.29897426636981
H          -2.33134932776274   -2.39708895255080    1.79317238750802
H          -1.01935065477194   -2.07406597753495    1.01630603568622
O           0.83022390753064    1.71642930248609   -1.83401731495184
H           1.56414566019888    1.94586949083645   -1.22969584878290
H           0.82373973310906    0.73983625051709   -1.84511304356156
O          -2.15852380879283   -0.67901933103955   -1.24332836483597
H          -1.22832280964573   -0.89456948713973   -1.44974839813910
H          -2.32214162229778   -1.11105417200403   -0.38813768714125
N          -1.41516157046950    1.74037025796116   -0.49838479909474
H          -1.88220036401172    0.87082850359903   -0.88791635077800
H          -0.52145374919794    1.87958073670872   -1.07520076068204
H          -2.02220838969142    2.55054403012971   -0.52864881608328
H          -1.12881121163298    1.48582277070622    0.48982821606472
