    26
        -50.46728299  Gyration_radius:  2.44665832264 Dipole_moment: 5.263
 S           0.21680185372219   -0.40642544680499    2.06231089340119
O           0.21140924096488    1.00070438972978    1.67574510790002
O          -1.06839428132121   -1.04248538835016    1.87764024680464
O           1.30652311108476   -1.13875732680135    1.43994536103247
O           0.49571169784497   -0.40970484949512    3.62272362991828
H           0.24774602412591   -1.30050634271716    3.84303495223936
H           2.55046213165076    0.08891442518195    0.51113811442181
O           1.23989417335591    0.46461048218850   -2.12168454602777
H           1.81862367663379    0.78237521869790   -2.81539070989068
O          -1.71792342817118    2.22758443191751    0.44203955065221
H          -1.08383891046915    1.72905763933292    1.01378691550318
H          -1.44949952885796    3.14608957147153    0.50149446034130
O           2.35064901783597    0.97257600766710    0.17009831230816
H           1.59694880635668    1.23166920116905    0.74015769458627
H           1.68643448791525    0.70486355082391   -1.25512920125218
O           0.84786375454527   -2.14680038939581   -1.00028216878138
H           1.08035057063696   -1.90793304515321   -0.08056062811228
H           1.09998594778394   -1.38461297373834   -1.53865613685117
O          -1.72672913019056   -1.73932570631043   -0.56977589455005
H          -1.63530682095930   -1.54389708050659    0.39085842515335
H          -0.85108776026141   -2.12554163158856   -0.81337229229836
N          -1.44922048837342    0.57866185736597   -1.64259689617041
H          -2.05615955308834    0.74518670702645   -2.43720007245677
H          -1.64522201381820   -0.41716575286797   -1.20548529355307
H          -0.45040420890406    0.60227517896900   -1.92380254417622
H          -1.61561838003883    1.28858723218586   -0.88703729014436
