    26
        -50.46903419  Gyration_radius:  2.50558579383 Dipole_moment: 1.858
 S          -0.69066619764818   -1.41834375868287   -1.50305721236832
O          -0.49324808006960   -1.73186676355659   -0.08017842527243
O          -1.86171232502222   -0.61571565388655   -1.71647540677332
O           0.52703715667023   -0.87612219410693   -2.08846701605723
O          -0.93323647327224   -2.80741142384250   -2.21945866434296
H          -0.07270711084663   -3.21402407081126   -2.20076820788109
H           2.20081420844267   -1.21568034068857   -0.88226654576511
O           2.14806803020648   -1.40408601498454    0.06172598670694
H           1.20822076848200   -1.63025872833607    0.19270784040484
O          -1.94873922510632    1.75422661363946   -0.52162151396953
H          -1.04517874710129    2.01022804893941   -0.77647087592571
H          -2.14391845382560    0.98867406104923   -1.09845089035373
O           2.07891166435573    1.14945650554497    0.95270516016770
H           2.26061899882931    0.21294182879929    0.72471804799563
H           1.60376305461151    1.50519144805860    0.18516594030286
O           0.64317900181480    1.63942814844033   -1.38142590480822
H           0.99515318944200    2.13584829166033   -2.12240218401229
H           0.59770237819966    0.69775350177332   -1.67910203620059
O           0.49205881677338    0.88980886224085    3.00235212971357
H           0.93671301998876    0.24096330124843    3.55002621510592
H           1.13399475348211    1.10271078385135    2.26681345745659
N          -1.54039585216116    0.11432557436136    1.48753173230613
H          -1.76236014109449    0.89143907056736    0.78783025106147
H          -1.17169044380203   -0.68958890379369    0.91374156865459
H          -0.78421650205738    0.43289770141007    2.15771501804378
H          -2.37816549929507   -0.16279590890161    1.98711152582690
