    26
        -50.43397307  Gyration_radius:  2.55428537319 Dipole_moment: 5.863
 S           1.02641800080569   -2.19545733971313    0.22474401009656
O           1.86331119926395   -1.16977625460509   -0.34527409131385
O           1.42524844114797   -3.53997920326760    0.03505362302571
O           0.80612310194580   -1.88254402479021    1.72863040698212
O          -0.41105950952697   -2.01794723440024   -0.35493157860520
H          -0.90057756406139   -1.30534521125111    0.17683612878879
H           1.24903339779648   -1.00688160290010    1.98766048438523
O          -0.15146128139764    1.63394826810699    1.28662364870565
H          -0.51640459800121    2.50894830511800    1.40085280392183
O           1.70432190385822    0.37157022413465    2.51028424126845
H           1.56041598133854    0.40915496599723    3.45753192535386
H           1.00389406630701    0.95459819081848    2.08611341922253
O          -1.74325377023797   -0.25671240522209    0.92585392238639
H          -1.12283846777724    0.56356823621838    1.08055048498243
H          -1.90949462124016   -0.63226007336297    1.79150722194958
O          -0.69713840636175    1.28129975073049   -2.95467020513505
H          -0.49505233903875    0.93683179598216   -3.82545756017137
H          -1.39172133977170    0.69186151105892   -2.58284746647578
O          -2.35399226109672   -0.50706253092869   -1.83125879527900
H          -2.48042826901428   -0.23319840177951   -0.91333241505969
H          -1.83272934790385   -1.31578293156947   -1.77842050303466
N           1.09225159453958    1.35570873522241   -0.85757078560913
H           0.46602562055197    1.39135565144207   -1.67869707975709
H           1.46408000546364    0.39384707004138   -0.74233932123410
H           1.86049915479705    2.00519023486388   -0.96889400084688
H           0.48452930761176    1.56506425405154    0.14145148144654
