    26
        -50.47723512  Gyration_radius:  2.39967139773 Dipole_moment: 3.768
 S           1.29645333651239   -1.03461366439903    0.49827899284966
O           1.45703746272559    0.41952601198824    0.36136043153464
O           1.04120392839197   -1.42762341993739    1.85938558790242
O           0.28023329914952   -1.52069611047906   -0.42854873867343
O           2.66161148566988   -1.67071291585176    0.06133406464905
H           2.82228140901107   -1.26800722825762   -0.80344280448415
H          -0.29202489025352   -0.72787175730210    2.43613661838476
O          -1.13719540377980   -0.28920147062452    2.71213353980512
H          -1.25959745603891   -0.51694956721999    3.63537805850441
O           2.69240876903133    0.27740046988743   -1.87863230923090
H           3.48576929531252    0.81510014784567   -1.91149587825767
H           2.22567750163833    0.51181912538624   -1.03921134426047
O          -0.52163862895913    1.94756499499689    1.21977313133010
H          -0.86029754010355    1.36344026409147    1.91859055763043
H           0.31827066792952    1.52029846728581    0.94651007914622
O          -0.06677981070238    0.06753557271440   -2.50321732836238
H           0.83424865384637    0.36415123397251   -2.67629070501985
H           0.04102490767529   -0.64889967760258   -1.83846342723642
O          -2.24614182631022   -1.17650852533752    0.35563193510484
H          -1.38397474178469   -1.51839216127606    0.04015150257168
H          -2.08702124554718   -0.94251494374103    1.28598796442362
N          -1.88232164703024    1.11785755436856   -0.86914800889626
H          -2.64936615585474    1.66256713005399   -1.24518447548370
H          -1.18271887029985    0.86349695981009   -1.61522427050702
H          -1.37626148194543    1.61748123508691   -0.07482760626812
H          -2.21088101817056    0.19375226449810   -0.44696555725225
