    26
        -50.45534515  Gyration_radius:  2.47399255101 Dipole_moment: 8.025
 S           2.02031600658882   -0.49030706580887    0.85737486218274
O           0.91417802653785   -1.47291599453772    0.86315474472723
O           3.31763574412632   -1.06558839683424    0.79477679380687
O           1.74652019383708    0.49438042487693   -0.20825907254724
O           1.87249276876623    0.29201398924139    2.21285705343466
H           0.93501886812892    0.56052940035769    2.23751618955567
H           1.49241367996989   -0.06512096890023   -1.66847520279029
O           1.22207322387334   -0.30210388294318   -2.59743185544331
H           1.95958970430344   -0.03607863795773   -3.14814244023274
O          -1.17341907995962    0.72828015424933   -2.38270693581972
H          -0.24586458500964    0.43085598874646   -2.58079333383618
H          -1.61491424146616    0.84647456325055   -3.22420334716789
O          -1.78593170161098   -1.31289302841310    1.98309242916990
H          -1.58720463871864   -0.38900979961719    2.21202828047978
H          -0.93821868020993   -1.76511909654864    2.08042627456313
O          -0.26700902153505    2.15338085106875   -0.11467275658749
H          -0.76954655120514    1.87255378917419   -0.89015485465104
H           0.58213990960128    1.65274139872952   -0.17058311315556
O          -0.68999647679048    1.17671640462898    2.24532055591108
H          -0.71746630339067    1.89200188164080    2.88273470275008
H          -0.63461700465178    1.60626917051569    1.34414369392622
N          -1.15469903673420   -1.35784768716340   -0.58263356418717
H          -1.27901998878474   -0.54193537835853   -1.20615850505233
H          -0.15632524045678   -1.36609261219494   -0.11640775257190
H          -1.75727250303739   -1.31993208151487    0.27362451072992
H          -1.29087304225524   -2.22125339567415   -1.09642738717422
