    26
        -50.46531433  Gyration_radius:  2.4678262433 Dipole_moment: 3.841
 S           0.80123970575135   -0.48964148835947    0.92727091441993
O           0.04724229099685   -1.63860990364622    0.43932015997579
O           2.18485414322874   -0.49241383805030    0.53107253279467
O           0.13449386351049    0.76151885635460    0.49012175107624
O           0.74065669162246   -0.50311583710039    2.47719074456151
H          -0.17253318514509   -0.80872105759789    2.70464729898415
H           1.28805809146170    1.68847520798331   -0.41164472574833
O           1.96328461223067    2.09637316178295   -0.98556275843119
H           2.76125711914310    2.12244549867785   -0.45330377707374
O          -2.30971411574559    0.98558861528466    1.38447861848171
H          -2.40536431107726    1.88394122101516    1.70604548519239
H          -1.37734579387457    0.91025773666741    1.06466790778754
O          -1.75408469632669   -1.00569191219598    3.10026019951696
H          -1.94782704691913   -0.68909984952356    3.98524454235029
H          -2.15201325493886   -0.36704346618484    2.47137036623346
O           2.36937094373148   -0.31603334814121   -2.11003508275901
H           2.26613887014840    0.65611140175674   -2.06438415633134
H           2.51699947053913   -0.55175122423549   -1.16959577431284
O          -1.58140864189780    0.76778762615113   -1.61429962486615
H          -2.40077952436879    0.64719276061552   -1.12662276245796
H          -0.90777066837058    0.94865791931153   -0.93058762399831
N          -0.02632418773376   -1.34225300850714   -2.11809812023232
H           0.95677269100922   -0.94513622838388   -2.29051652531559
H          -0.23572867543262   -2.12735524457973   -2.72394457477418
H          -0.03001808705782   -1.61694713599791   -1.08258370297956
H          -0.72945629450184   -0.57453645311824   -2.20051132210537
