    26
        -50.47062960  Gyration_radius:  2.42495894629 Dipole_moment: 5.188
 S           0.98669648976046   -1.76343258798733   -0.29634189841724
O           2.04884450867413   -1.11040482119958    0.45186461415055
O          -0.19092131713093   -2.05463337689649    0.47696046072940
O           0.67066841406575   -1.01952950005462   -1.52081073232643
O           1.60199266407069   -3.14482362349339   -0.76632164959059
H           2.53303472163898   -2.96156545850356   -0.70385394336841
H          -0.73410822163608   -0.27395810498759   -1.79878996407582
O          -1.52728047652587    0.29986318291695   -1.96005584114085
H          -1.76337692298776    0.16928569920357   -2.87938769844421
O           0.65410667892621   -0.45570630639666    2.61859184604429
H           0.07111939485448   -1.22069090651093    2.63135958704153
H           1.27451239180101   -0.64419173967750    1.88859838705683
O          -2.43005822358696   -0.56139416106830    0.57393950063976
H          -1.71290838454343   -1.22240718206147    0.60810757304600
H          -2.45311092036980   -0.27478667991396   -0.34796640510113
O          -1.13880211997493    1.36168748317985    1.86023035985120
H          -0.42281286092544    0.81819767379661    2.26507286313079
H          -1.78426128862741    0.69235927065413    1.52473108988773
O           2.01379415055986    1.16817596092244   -0.97506174325312
H           1.59094604929008    0.38063753441619   -1.38175235855564
H           2.45612638896266    0.78754355314032   -0.20572519431885
N          -0.34871348757820    2.23426363113856   -0.42206502134868
H           0.65638121355240    1.94490530588184   -0.58578171252709
H          -0.47264401562978    3.23058877670747   -0.56096660389755
H          -0.92603501851728    1.68788978589442   -1.08703116542885
H          -0.65318980812307    1.93212659089913    0.59245565021694
