    26
        -50.45909907  Gyration_radius:  2.47760305931 Dipole_moment: 8.430
 S           2.37472791274140   -0.66588325922920    0.23998342986896
O           1.64380726913782   -1.94562929628596    0.28493631336539
O           3.68650983839252   -0.75418185224797   -0.29976541812205
O           1.52057601986683    0.33551406312436   -0.44423082784673
O           2.46594487116435   -0.17283200908441    1.72852257649791
H           1.53658722465188   -0.10354307886424    2.01136324011477
H           0.63406361186944    0.15174294963385   -1.67724460817446
O          -1.84971414932118    1.51829234906902   -1.05918262179025
H          -2.47039913515951    1.95649401952096   -1.64225760435650
O          -0.08156105325248    0.40852063014572    2.46768674334868
H          -0.03991877175885    0.71494325990922    3.37466267101935
H           0.00218931602512    1.22183895400339    1.88434016361075
O          -2.13474691444702   -0.45743790756175    0.87794658237465
H          -1.48806689689179   -0.23543150728195    1.57289897306020
H          -2.18635393209284    0.32616744944480    0.30514747417906
O          -0.03053728468252    0.03803522340496   -2.42814456648951
H          -1.21707377870481    1.02726207520243   -1.62552589978243
H           0.45116416474105    0.25467596319768   -3.22742539075744
O           0.19903267662057    2.28995116942646    0.71187217760131
H           0.84574107859514    1.71013489986502    0.25069637628514
H          -0.58846096991770    2.27136127048592    0.14930825609043
N          -0.68014182673395   -1.99838980562732   -0.70584402381901
H          -0.99197672479734   -2.94766266901543   -0.87387629361962
H          -0.60232325644509   -1.46140673146630   -1.57933049208719
H          -1.33004210530938   -1.48302695996781   -0.04439356660718
H           0.33097280547850   -1.99950918035888   -0.25214367378892
