    26
        -50.44760803  Gyration_radius:  2.53265379788 Dipole_moment: 4.603
 S           2.01878089135806   -0.94853101818746   -0.34346318518979
O           2.30758723194974    0.35640716428884    0.21766669926178
O           2.96591619331442   -1.96925464109474   -0.10412737915337
O           0.61178508701719   -1.37566590307576    0.14845988870097
O           1.81270214858849   -0.79521628246783   -1.86787298176104
H           1.04059727086055   -0.17683727095438   -2.03152110127126
H           0.16397973210234   -0.65919411193328    0.73296836350132
O          -0.27592187546545    0.65854386544067   -2.28721611329195
H          -0.41513719567594    0.77814700545967   -3.22814074651792
O           1.88275009025473    0.62261809506913    2.85772174293657
H           2.23458308364462    0.48609632826761    1.95713249170285
H           2.28134821867072    1.43139762753739    3.18427896988023
O          -0.44923506477456    0.43838211712703    1.57850117430311
H           0.23341465013552    0.49569620923431    2.28042769603407
H          -0.28170741590855    1.22921283022279    0.99778218292724
O           0.40622036762517    2.23737054437611   -0.12231358701589
H           1.26582909412275    1.78505975503104   -0.05250766573279
H           0.03873988332606    1.95080442555650   -0.97064731995923
O          -3.07269902745376   -0.31218939625994    1.07270447600097
H          -2.20381966226973    0.02050117323083    1.35010883727370
H          -3.44294434130527   -0.76560300214888    1.83120052725108
N          -1.90561043765057   -1.16493605983014   -1.44094775206055
H          -2.48952329517662   -0.81207189422103   -0.68302922030361
H          -2.49848246670278   -1.67167148630406   -2.08566530972858
H          -0.98004953050324   -0.02131201548712   -1.96549769329569
H          -1.24910364006947   -1.81775406887638   -1.02600301451781
