    26
        -50.46774660  Gyration_radius:  2.51146797945 Dipole_moment: 3.595
 S          -1.58511357047186    0.42523509140091   -0.98631310544856
O          -1.83554877409109    0.49503793405579    0.44568471568447
O          -0.56759330559952    1.38429258359820   -1.38779760981041
O          -1.30079035723865   -0.92357034582802   -1.42988657372225
O          -2.92704630733098    0.85243004563495   -1.70326655106457
H          -3.09092727465343    1.72030658551711   -1.34786678525775
H          -0.91904654785413   -2.13510319490504   -0.28992667886085
O          -0.57837128570740   -2.78242025257052    0.36359927171493
H          -1.31524456278645   -3.35691605446222    0.57371651146975
O           1.76396445673814    0.12471250753292   -0.98291216011414
H           1.73612614677529   -0.70765866464848   -1.50005900404745
H           1.02079299464634    0.65578488111396   -1.32609650673061
O           1.01200748386466   -2.16817287921771   -2.16592025602623
H           0.95299234863768   -2.85542896550015   -1.49581573929513
H           0.13083768490131   -1.75853315921663   -2.18659542854716
O           0.79987173987029    2.69521349289332    0.54092603511613
H           0.18382605068086    2.29439872230312   -0.10232705997432
H           1.65943495784537    2.66594406277053    0.11330262465704
O           1.07604021416181    1.53965495840390    2.96614190353780
H           1.01032472074820    2.07488031975777    2.14430408939008
H           0.39248352641295    1.87068332565571    3.55031210108863
N           0.49053205018164   -0.43930708190683    1.26505532752841
H           0.83712131554591    0.06866019438684    2.10439393286695
H           1.12570565030677   -0.23647625064848    0.43460278798786
H           0.38770658768924   -1.45301293629305    1.37527374531073
H          -0.46008594325841   -0.05063492987436    1.02747040256956
