    26
        -50.47225101  Gyration_radius:  2.39564268953 Dipole_moment: 5.715
 S           0.96469209054037   -0.35600364085461   -1.33194899699909
O           1.57915440256816    0.56862494291112   -0.39102830659296
O           1.41421475729225   -1.72139841235221   -1.13801611889169
O          -0.50604608146627   -0.28985369349844   -1.23346554850515
O           1.33295870427104    0.08918457311638   -2.77079248632173
H           1.20573131946599    1.06945173015729   -2.73178724104263
H          -1.32508064063316   -1.16337855336677   -0.17527552692206
O          -1.79276933181404   -1.66330379063299    0.54592676466779
H          -2.49073380544754   -2.15918499085792    0.11573462741155
O           1.16089915900659    0.18859132278924    2.19326330348647
H           0.24578067800010    0.54903253927994    2.25864454757506
H           1.47408162817068    0.48259615869210    1.31175061834655
O          -1.40134624647229    0.87785499007961    1.85464402595300
H          -1.40359572186633    1.47380400881112    1.08797209718722
H          -1.74296365781967    0.03156026606207    1.53783558187632
O           0.95966285123947    2.56714312780398   -2.02053259293236
H           0.05837944345981    2.70352755833099   -1.68541523357386
H           1.44078221125689    2.20377456093896   -1.25952924127756
O          -1.44933679128148    2.06805299613531   -0.70701737004451
H          -2.30822096015222    2.14080630726717   -1.12662240339222
H          -1.10009276272943    1.16963705186782   -0.93404467223507
N           0.74268398205059   -2.20203726331486    1.33964901374629
H           1.12111347493319   -2.11738665702522    0.34998442770161
H           0.97356570735117   -1.24994850806924    1.83222760230266
H          -0.28709445280227   -2.26021399804385    1.25161737173704
H           1.13358004289200   -3.00093262621967    1.82622575673253
