    26
        -50.46182886  Gyration_radius:  2.47511046686 Dipole_moment: 4.421
 S           1.81891843344754    1.01898156907196    1.18302291387824
O           1.69417372359171    1.88401385643702    0.02791191872748
O           2.80937693654999    1.37304736890527    2.14688853270493
O           0.41317197758762    1.17937123920086    1.98639829632730
O           1.82422566767634   -0.38976491639943    0.77407000174516
H           0.74379196607862   -1.54176440709440    0.94342509724293
H           0.78589994057556    1.55495304250228    2.77604532091365
O           0.07172532082721   -2.27594251015472    0.94423552799783
H           0.51669471345909   -3.03384321223746    1.32572673785513
O          -0.64312007637761    2.20850332875271   -1.07996426645257
H           0.22487316581961    2.06976525350353   -0.63189280395818
H          -0.83732866422214    3.14147626291021   -0.98660534544177
O          -1.87907633016438   -0.38268988376029    1.62432219318410
H          -1.21097685808781    0.28794288509355    1.82484099376710
H          -1.38191659037145   -1.20847103541718    1.53568607213891
O           1.61818724367002   -0.18645443086062   -1.83798192676958
H           1.84378824278781   -0.28847915453504   -0.88569288313531
H           1.56121070985862    0.76711507529732   -1.95672332162710
O          -2.43517977449649    0.22102382190143   -0.91758451709562
H          -1.90241785407722    1.03609240867298   -1.02321101425956
H          -2.44286785777456    0.04519999492264    0.05112674446284
N          -0.64424587594488   -1.51861977377989   -1.58516210985088
H          -0.88081867775032   -2.16703562058188   -2.32706483416457
H           0.23186719159552   -0.96452991149507   -1.82326476925924
H          -1.45387159337851   -0.81475775321576   -1.39197463930158
H          -0.44608507088865   -2.01513348763685   -0.69657791961339
