    26
        -50.46609722  Gyration_radius:  2.72039484958 Dipole_moment: 2.440
 S           0.89893144412214   -2.14916974976765   -0.92298860047786
O           0.45821952731096   -1.71450185775270   -2.23930528275429
O           1.91145263980044   -1.29189375402817   -0.34369684558490
O          -0.23730528061368   -2.36866372482394   -0.02975472761234
O           1.58760465623260   -3.56457175269127   -1.12279113779337
H           0.93513159681811   -4.07544849221444   -1.59231183072107
H          -0.05679454575035   -1.25851516292681    1.45725955560311
O           0.48360473295504   -0.47532911386981    1.65971147632540
H           1.28040900846546   -0.66019663702623    1.11725432392880
O          -1.22527570104963    3.30526422059992    1.12626014124734
H          -0.88760034032089    2.84889897225062    1.92480776152411
H          -0.78020115703960    4.15277306372007    1.08948807659417
O          -0.16168768093531    1.79408759042108    3.11376135182188
H          -0.68116868612380    1.51919535524718    3.87088303889340
H           0.18046601909327    0.97979542762700    2.70730673510915
O           1.35630009523715    0.75893187785421   -2.08224772332399
H           1.01734258299366   -0.12079051209483   -2.35750519305140
H           2.11995926684686    0.53362504331790   -1.53962056966059
O          -2.03187112537224   -0.92581150463110   -1.32963459682903
H          -1.53535457444241   -1.56157533602487   -0.77128596958154
H          -1.63807431234328   -1.04650459940155   -2.20071286683842
N          -0.61029472030684    1.08861341125419   -0.31019560154421
H          -1.36173962875333    0.47544707493734   -0.71329540532720
H           0.14997149491911    1.16756661547632   -1.03474889280230
H          -0.96070312046735    2.00959098856594    0.01456070850199
H          -0.21132219124225    0.57918253597787    0.50880208441284
