    26
        -50.46580553  Gyration_radius:  2.49583130113 Dipole_moment: 4.674
 S          -0.94424109908758   -1.89128814695585    0.28151970552545
O          -2.04083729627519   -0.94282477172764    0.45197009802622
O          -0.65576425141869   -2.22963446697359   -1.07693723764441
O           0.22831215127081   -1.42279038237972    1.03599455457130
O          -1.41652992446486   -3.21770626388416    1.00932430901180
H          -1.85579772239882   -2.90275576822813    1.79285344837703
H           1.51565032229004   -1.52443318925473   -0.14183111637516
O           1.98588803153408   -1.53092776336842   -0.99381232936901
H           1.41488614659496   -2.07042675353832   -1.55204299173552
O          -2.05543233201434    1.73585335477399    0.72715317836014
H          -1.98025514897252    1.96258236506486   -0.20620236813152
H          -2.29193534752134    0.78857288878500    0.72895708886661
O           1.34968857818365    0.95881476353057   -1.80866862256544
H           1.68092475711048    0.05370527973767   -1.61920855869835
H           0.37964357276529    0.88349620956425   -1.82456874372660
O          -1.35783468756994    0.41128434327285   -1.76493027836369
H          -1.60753981915687   -0.17970975654113   -1.03138752641084
H          -1.38669634214684   -0.14477043848177   -2.54676556282981
O           2.29135238455711    2.14680935606619    0.28548410502687
H           3.16148912149253    1.75443391272396    0.37700247899357
H           1.94638924082889    1.81782636047519   -0.59668388887758
N           0.33346123859319    1.11717347389833    1.71311694745793
H           0.42113720757298    1.25578290588171    2.71395794305768
H          -0.58188669849461    1.51644320880221    1.36301850833125
H           1.14873343246597    1.57079355386406    1.19717962600263
H           0.31719446433079    0.08369573483115    1.48550724305998
