    26
        -50.45553931  Gyration_radius:  2.78531306582 Dipole_moment: 5.748
 S           0.61730861907775   -2.50464087530198   -1.54210463869012
O           0.54484443728624   -1.36454553624350   -2.45001593870489
O           0.37451945800350   -3.77773817449495   -2.13615008914949
O           2.16629271747873   -2.54159686588462   -1.04765515545392
O          -0.11353693348438   -2.22529038427977   -0.30354068035138
H           0.92478739226585   -1.39144553097953    0.57697850845177
H           2.52323437013470   -3.17056438110428   -1.66542142494600
O          -0.32334740844042    0.46107803977608    2.59301283510104
H          -0.18605042714936    0.32417708342128    3.53085156095881
O           1.53770243270191   -0.74717176948092    1.02385916720001
H           2.40947868448160   -1.13142256757086    0.91561524148214
H           0.43302217566529    0.04872123050715    2.13457767080045
O          -1.92642794619575   -0.39843136976551    0.44223923880272
H          -1.53094243471408   -1.24024183390050    0.14710391864154
H          -1.61819131447463   -0.28723545668353    1.35386841727645
O          -0.19493925392625    3.34313641355602   -1.00583355846920
H          -0.71185127819162    3.20101298534861   -0.18450327338355
H          -0.68583676025000    3.97188646222783   -1.53544634456007
O          -1.64446720744551    2.46681717631081    1.10508071878000
H          -1.11244994717380    1.95940306548173    1.73641389610569
H          -2.29985070486170    1.84586713103873    0.77183829123937
N           0.16956606174942    0.65975170627444   -0.90723621534183
H           0.32868808246185   -0.06754965459816   -1.67418979777187
H           0.15975974963274    1.64488205877164   -1.22205061366987
H          -0.74385356008070    0.41434814635602   -0.45575044276666
H           0.90254097552131    0.50679292132801   -0.20154130168417
