    26
        -50.46801041  Gyration_radius:  2.45903592782 Dipole_moment: 4.770
 S           0.08981108270617    1.95100950203180    0.68333166148640
O           1.28542509315353    1.52905630022944    1.40025743403755
O           0.28968295079672    2.07148636443611   -0.73858255484771
O          -1.04371085068774    1.09329470271499    1.03263599812710
O          -0.27030064666417    3.39629250579776    1.21595735639415
H          -0.32462879786425    3.27017135144818    2.15764772891571
H          -0.27841921353974   -0.24611737044472    1.42572367328036
O           0.30583529260334   -1.03409799451603    1.58058550098177
H           1.07009112070531   -0.65484215045071    2.02582889542147
O          -1.60390789837262   -2.76978139897471    0.58769738041732
H          -0.94218167479391   -2.30340880080320    1.11900266835592
H          -2.23662394976492   -3.14674325640625    1.20080701342213
O          -2.58786997938838   -0.44752637981874   -0.62363187486337
H          -2.35851907705435   -1.33215597789366   -0.29180713434934
H          -2.21865394824093    0.18250953276330    0.01833048880469
O           2.76774249465459    0.85201615090399   -0.65822724820674
H           2.36628917727632    1.12476043892191    0.19833538323342
H           2.40992042039172    1.49233355957350   -1.28245451212432
O          -0.62863995836505    0.10187490762501   -2.29514027399636
H          -1.48778978990936   -0.11969706966590   -1.85515488337092
H          -0.36758096680561    0.95811567970778   -1.90098420125098
N           1.16424946077362   -1.22838432026914   -1.00462673923330
H           0.38299497351053   -0.77290407675110   -1.62117772886192
H           1.48128109672629   -2.11023635133115   -1.39079359753970
H           1.94028489070581   -0.50896849954672   -0.94584764628848
H           0.79521869744678   -1.34805733928546   -0.03771278794260
