    26
        -50.46014251  Gyration_radius:  2.66362519281 Dipole_moment: 4.692
 S          -2.14035060198154   -0.98200412770226    1.40117712165257
O          -2.90872690518205   -0.39703246361659    0.30391821987798
O          -1.71293991304378   -2.33157495018106    1.20460939961394
O          -1.02512796722379   -0.08494375538690    1.75227561935734
O          -3.11961973883598   -0.95728630241869    2.65241443594800
H          -3.53529265204432   -0.10403722091663    2.57613710857572
H           0.13261549901770   -0.98114701193138    1.09030344657018
O           0.82238401260415   -1.52201551877141    0.63062875364938
H           0.49208620243094   -2.41853880475881    0.74853180795351
O           2.49139565167809    0.61360229769157    0.69470164615973
H           2.00183354232953   -0.23124516216459    0.70392438795344
H           2.87208404487131    0.71579924117220    1.56829260415585
O           0.04898685125724    2.02633610224399    0.55352917238250
H           0.97631346122479    1.74269667123554    0.51866344315043
H          -0.38276719136865    1.38616317495320    1.15661801478125
O           2.69941635142819    0.74943879275613   -2.05839141134461
H           3.57017015058116    0.46885011968021   -2.34297329336122
H           2.73733737133909    0.85099326972105   -1.09394396677751
O           0.54388081260103   -0.91762959003366   -2.02357181938320
H           1.32406440718043   -0.35524166822071   -2.19422559421481
H           0.67030560201583   -1.27796430855460   -1.12350320061223
N          -1.32179827587413    0.81601662265372   -1.36841881482237
H          -0.77591274701475    1.46037881614144   -0.73260705487717
H          -0.64113604159535    0.09573019846820   -1.75957934160876
H          -2.02721665933422    0.31020681342104   -0.75005651087345
H          -1.79198528722569    1.32444876447843   -2.10845419395420
