    26
        -50.46861496  Gyration_radius:  2.46021088084 Dipole_moment: 2.072
 S           1.30761328582623   -1.75983130258980    0.35470099732466
O           1.52465886206276   -0.95457770384808   -0.84971830503040
O           2.02904789774950   -1.27769730692500    1.49192854466799
O          -0.12910340345120   -1.90422133612794    0.61446148092536
O           1.84134805872045   -3.20732905876639   -0.00167316893182
H           1.54874234372411   -3.35869398955460   -0.89613376057334
H          -0.26528522230560   -0.67191877261841    1.72176629238105
O          -0.21122646767003    0.13881719658704    2.27711100190868
H           0.31232541990146   -0.12584830776716    3.03744406106967
O          -0.27555508381887    0.35692043719842   -2.47171083262453
H          -1.07910908008156   -0.06816133084195   -2.13986352801958
H           0.45423629182819   -0.13115362524835   -2.05678701457207
O          -2.10770187168872    1.43671457685429    0.55372256090787
H          -1.65061455087173    1.14324651120495    1.35010169913173
H          -2.25272178538935    0.63229711516653    0.02561595221656
O          -0.29107079699168    2.59853311800386   -1.02805785903864
H          -1.08644780968882    2.39269256764756   -0.48652266344854
H          -0.30641586357234    1.92935497434637   -1.75281288078266
O          -2.10666812085447   -0.96242918839860   -0.82926910306151
H          -2.83666711193030   -1.57982699240596   -0.76715235544971
H          -1.36430862289114   -1.35451713548237   -0.31226120243380
N           1.41301608994382    1.36309460152369    0.44448332053143
H           1.63779214786868    0.50703633746984   -0.11495261435005
H           0.76243758954846    2.00476616957993   -0.17219497008033
H           0.86706269423322    1.02571432145332    1.26712212985328
H           2.26461511979007    1.82701811353717    0.74065221747938
