    26
        -50.45417823  Gyration_radius:  2.62940103686 Dipole_moment: 3.799
 S           0.40329753919693   -2.56184494372817    0.27912065569113
O          -0.22330921426826   -2.71467948446144   -1.01094804003611
O           0.19355572423283   -3.60316626166807    1.23093147602623
O           2.00237924177679   -2.52176231255493    0.01079552774345
O           0.15257782724406   -1.19419732671414    0.80119668786554
H           1.47461705359215   -0.31020322248504    0.43129605264184
H           2.20564788756095   -3.44934644236266    0.06070242117769
O           0.84436256481204    2.54269384737940    0.96845270083702
H           1.20518762550211    3.05306453689426    1.69443376023848
O           2.19854923859411    0.28880942049587    0.12623953810847
H           1.45587849571378    1.80374207494600    0.81138310923223
H           2.94081563792927   -0.29773509997896   -0.03241831481086
O          -1.32064194096379    0.96276782104816    1.73376332045147
H          -0.65841848389579    1.63183432390741    1.48871498445731
H          -0.86398868722882    0.11167604223764    1.65693894233735
O           0.81175993237921    1.63756646749722   -1.81731749927233
H           1.47636683423793    1.15467316281773   -1.28970909627995
H           0.56703921461597    2.39273253591022   -1.27191080737370
O          -3.18521448693103    0.86136774635209   -0.15086314792151
H          -2.58766657629375    1.00700457027929    0.62513994340839
H          -3.93026326624015    0.35691354142078    0.17793764971882
N          -1.05038887045569   -0.22054169444541   -1.33479296729663
H          -1.99086439246960    0.17047038596658   -1.09186347508837
H          -0.42112042406512    0.52151606209226   -1.72900691798679
H          -0.60461065992657   -0.57020217001044   -0.44368977166674
H          -1.09554780461518   -1.05315357082957   -1.92452674217934
