    26
        -50.47132482  Gyration_radius:  2.42073390568 Dipole_moment: 3.208
 S           1.35433151835934    1.31347556693781    0.50996701223351
O           1.46502031442561    0.05117437236118   -0.19604967929483
O           1.68373281151840    1.24213333818905    1.91288921383840
O           2.45792950420001    2.25343133359884   -0.15680216289108
O           0.07444581214344    1.96782406427200    0.25563964193703
H           0.21245976439195    1.87887684646749   -1.40291270842651
H           2.61398665195861    2.90653192986717    0.51745544040777
O           0.37128317699047    1.50731172809509   -2.29812985043784
H           1.18612481538708    1.00680125999836   -2.18501732911735
O          -1.14784755485270   -1.70919330013484    1.65547545902542
H          -0.22049781241023   -1.53912885702652    1.97650649784360
H          -1.59550797151237   -2.16781657258673    2.36770162114457
O          -2.16995022153972    0.55149514035593    0.45768837881978
H          -1.89208085931254   -0.21992301635453    0.98505264666321
H          -1.42297355173238    1.18410732879915    0.50627419421069
O          -0.04354434136884   -2.07128451412225   -0.84821231979558
H           0.63220850711284   -1.38970054956434   -0.65982394754652
H          -0.50214311066437   -2.19476084037148   -0.00047248728459
O           1.35652828991579   -1.32126719688229    2.32099134684966
H           1.49285537247863   -0.34755223317982    2.32023108584935
H           1.87312914000280   -1.63535000433565    1.57410215255546
N          -1.58350202368982   -0.26059996480165   -1.95751284222644
H          -2.28830569246336   -0.44388508807455   -2.66132908899454
H          -1.03215524587586   -1.12637944056395   -1.68127242564847
H          -0.87746478358749    0.45944504178043   -2.27335251234913
H          -1.99806251983632    0.10423361725080   -1.03908734734536
