    26
        -50.45261325  Gyration_radius:  2.53075311874 Dipole_moment: 5.571
 S          -1.22422691483141   -1.11086095439974   -1.58276084209355
O          -1.80018365410538   -0.48093405319572   -0.41233973496883
O          -1.60578523935080   -0.57981721949558   -2.83887132363045
O           0.31461418916954   -1.03220921487677   -1.45899738532800
O          -1.53810111214281   -2.62220558501243   -1.52339524467191
H          -1.41779508916085   -2.89966474659506   -0.57225755914490
H           0.64888644732999   -1.15510325958580   -0.49312743591030
O           0.80796202052680    2.49927706147244    0.66708411177491
H           0.84318984740075    3.45411120613329    0.73617448509408
O           2.89507504212966    0.73787318569218    0.99069215377727
H           3.31252421040051    0.95818316603881    1.82487926498545
H           2.21290345123291    1.41801820961187    0.83161485813885
O          -0.67408810364520    0.46651418493012    1.83890108579831
H          -0.23349326987811    1.29767917544288    1.59609960373261
H          -1.26541279015904    0.25475972591973    1.09522847469346
O           1.09230450464247   -1.24005503312901    0.94656345591220
H           1.92652432599450   -0.72403402056931    0.92130045628354
H           0.45402389691624   -0.62718835767083    1.40997583229044
O          -1.10524304190383   -2.91753514452614    1.01538712121606
H          -1.65063182754809   -2.19037443415424    1.33360591230177
H          -0.18475074645489   -2.64130607749635    1.14119603774507
N          -0.41140735664797    1.84552006665304   -1.59540336567070
H          -0.76411882103433    2.51029792987693   -2.27404014166991
H          -1.20223717272681    1.29067658985050   -1.28264402012045
H           0.18574933433206    1.19717132233777   -2.09722204566763
H           0.38371787942199    2.29120625663453   -0.21764376520542
