    26
        -50.45781155  Gyration_radius:  2.68567547551 Dipole_moment: 4.553
 S           0.33815013412662   -2.56944802026385   -0.01179844192532
O           0.00394065094786   -2.99227594522564    1.32468987871732
O          -0.75134263966247   -1.98021456928601   -0.75714710867969
O           1.51540309646754   -1.68443052345689   -0.03065402437740
O           0.76839462369300   -3.88261692175982   -0.80966613879561
H           1.19917311591551   -4.40658884320494   -0.14038737542407
H           0.75731800288115   -0.82000911325008    1.08161805283625
O           0.18650949854642   -0.30520948464313    1.70638177223969
H          -0.20981240842714   -1.00543101241738    2.23634353604823
O           1.63762378029369    1.97191495096179    1.21471568911963
H           2.32030818111128    2.12306935270631    1.86991227196915
H           1.14561611760292    1.18360668141770    1.50957441591886
O          -0.45179660621035    3.54403774357137    0.35297211443904
H          -0.14206793597624    4.21348513389451   -0.25844083565032
H           0.34233398527245    3.12285054318331    0.73174046003009
O           1.35160783929741    0.58189375414991   -1.37401345970330
H           1.46087132926367   -0.33991398215349   -1.04438590695167
H           1.82606726204615    1.12998297836616   -0.73680266214473
O          -2.89616621335718   -0.64816354636614   -1.46733718783127
H          -2.97057818724085   -0.78251319516690   -2.41371607670679
H          -2.22961164363819   -1.30171467087103   -1.16431066005228
N          -1.06924688364737    0.98870407281570   -0.37032184400444
H          -1.89277618735709    0.54777570004124   -0.83437129222255
H          -1.16675509541922    1.99773118272167   -0.17146930457441
H          -0.87513030744078    0.47869222845691    0.51108873533132
H          -0.19803349912255    0.83478549579972   -0.95421458760589
