    26
        -50.46428625  Gyration_radius:  2.43127041667 Dipole_moment: 5.361
 S           1.95776144409372   -0.98958136238587    0.72748412575556
O           1.33024092373116   -0.53092630411399    1.94747778284732
O           3.38208310121828   -0.93136781954306    0.70319692021528
O           1.56127912217978   -2.54256400387226    0.56506306921252
O           1.30612324339440   -0.37280203872545   -0.44289250387963
H           0.03197974763502   -1.32368748090519   -0.69446680472250
H           2.29728250450256   -2.95252991774271    1.00529674318085
O          -0.82164305573302   -1.80102038838261   -0.84505571620901
H          -0.58227829995795   -2.72491004302968   -0.93055432376136
O           0.66482036934821    1.62641918169937   -2.12752912602825
H           1.10835561717577    0.85292809033712   -1.73558015840153
H           0.83441127361915    2.34149178521961   -1.50494021140153
O          -1.29276120879136   -0.89618499503014    1.77932882355803
H          -1.31909225699932   -1.41396830450104    0.96209103833731
H          -0.33941666258070   -0.78715126456882    1.98313469281197
O           0.83855754300779    1.97271869554458    0.80688436900500
H           1.04704637340568    1.09043119261745    0.44624071694886
H           1.16792852815320    1.94211546715105    1.70839362843728
O          -1.82575794046845    1.51683619012557    0.88834184356558
H          -0.91745306291139    1.88126505677416    0.94443408321718
H          -1.76787602025173    0.64935784030326    1.36936878399542
N          -1.75584852386378    0.67591015263836   -1.53911312904328
H          -1.88922539769858    1.07159530919380   -0.51931009255548
H          -2.54518188333667    0.88873407588855   -2.13785894610199
H          -0.85891969910281    1.09887911297182   -1.90536208331144
H          -1.61241580976561   -0.34198821765900   -1.45407352566524
