    26
        -50.46687227  Gyration_radius:  2.420066361 Dipole_moment: 6.670
 S          -1.30407939011390    0.46350610447753   -0.87416389494404
O          -1.40488579692371    0.22903237916760    0.57417890296171
O          -1.92488980444454   -0.58992812129081   -1.63065959188869
O          -2.02318033937010    1.79793503503025   -1.18267569954031
O           0.11535450111329    0.64766658945706   -1.23431850550495
H           1.29099515052700    0.45267669911037   -0.24167910599295
H          -1.45776958990772    2.48506643705415   -0.74390082713700
O           2.07361105091691    0.21583647022079    0.34352444189029
H           2.83431329032240    0.62307168507568   -0.07408553427422
O          -0.58065639124125    3.51465524123052    0.16151015870526
H          -1.18335646859171    4.10824550603334    0.61411340942896
H          -0.17859212138779    2.94308204421566    0.86433868581834
O           0.25901347198875    1.73391175003086    1.92954357887466
H          -0.43000631895127    1.14643636818098    1.54391070748802
H           1.09515217252690    1.33292097688181    1.66100754754324
O          -0.99404436686826   -2.15309069453016    1.47801715346339
H          -1.01758922843607   -2.02100922927976    2.42776466146515
H          -1.27735273902924   -1.28429021683645    1.08499083828435
O           0.31421507944363   -1.71917601210974   -2.33775800060882
H           0.51686745088235   -0.76917688763851   -2.22920585156067
H          -0.66107487100518   -1.68665016496739   -2.26845827112415
N           1.21021676970662   -2.31979257497193    0.03799233798936
H           1.71960145073776   -1.43489635368822    0.26114573121405
H           0.35942476242215   -2.36793586484864    0.66853383765016
H           0.84839279373456   -2.21040712301731   -0.97451837252695
H           1.80031948192480   -3.13769003296833    0.14085164234779
