    26
        -50.46618276  Gyration_radius:  2.56393539842 Dipole_moment: 2.071
 S           0.46427167269776   -1.00491675787151   -0.06103110054828
O           0.68379279041793   -0.35322083868205   -1.34805358943582
O           1.35789837465817   -2.10633503842406    0.18565377139993
O           0.75522714895781    0.10584123555374    1.03681899319898
O          -0.94517408704711   -1.31843150595643    0.14075751028398
H          -1.90181327720924   -0.47588302002217    1.18542707332020
H           1.73433977774585    0.26817964371614    0.95952355834891
O          -2.52889701801359    0.08739712810334    1.69926507929794
H          -2.49298001743645   -0.23486181346694    2.60052907168268
O           3.32070629029227    0.41654649241499    0.84010010280404
H           3.72843102796641    0.01789792521664    1.61232410005398
H           3.54339958709366   -0.17103270161408    0.07989307243815
O          -1.04736973983897    2.21222685833047    0.95749932586211
H          -1.74510989390069    1.63798201854112    1.33432938431025
H          -0.22694051308497    1.73228006678247    1.14811367108083
O           3.64203421782560   -1.52321981868423   -0.94131578147536
H           4.19537464101708   -2.30200483289341   -0.85725023546287
H           2.73870237593772   -1.80026566647474   -0.66280588463776
O          -3.14040288202277   -0.47961366266631   -1.14855993764206
H          -3.62757186074353   -0.23937094895943   -0.35351036426007
H          -2.40704781086098   -1.03959942809127   -0.82508528528058
N          -1.22954506639036    1.34116853915215   -1.53940870515872
H          -2.09256445783189    0.73960680943909   -1.54241330409561
H          -1.20030105783840    1.96917396325580   -2.33469644413959
H          -1.18726977322758    1.86093155258161   -0.61795356811424
H          -0.39119044914029    0.65952380072182   -1.54815050377774
