    26
        -50.44982875  Gyration_radius:  2.40391526872 Dipole_moment: 4.811
 S          -1.22895407640247   -0.22218010977414    1.39493424515915
O          -0.13542658106147   -1.01361303959685    1.90990424206951
O          -2.19444616750713    0.22803303137401    2.32658619138831
O          -0.64711226510523    0.98879909818363    0.63412700836031
O          -1.93824241476458   -1.01879996545955    0.27342396227689
H          -1.23266914478435   -1.35086331351180   -0.36226655790243
H           0.40189318797360    0.95714330504178    0.48798084139601
O          -0.16087411069642   -1.73874287906761   -1.44168438754341
H          -0.58330441888053   -2.26583560642336   -2.12210219449103
O           1.95619224171818   -1.70242061334831    0.34507405824733
H           1.33691994211822   -1.70560751581459    1.09409290574399
H           1.41995856592898   -1.96832354201767   -0.41456571888632
O          -2.31346498731568    1.35402224395711   -1.53895609045295
H          -1.85730330974550    1.44025569093038   -0.68977220275092
H          -3.01739840009338    0.71941932271665   -1.39043387647051
O           1.27423783872603    0.99768041961517    3.01878357209019
H           0.67119170306178    1.53319326482593    3.53607365667524
H           0.80506301231094    0.16900754755544    2.82234020499350
O           1.82700643349254    0.91523796369950    0.36549399710283
H           2.01542434872500    1.14784797444282    1.29239769747523
H           2.03572644993848   -0.05861410646723    0.29444293668670
N           0.35500990549241    0.59528020705810   -2.42931844364017
H           0.07522891689762   -0.83151620403432   -1.87157994578081
H           0.99623076373133    1.07186220507441   -1.80550674446695
H           0.69241168949124    0.70694296697596   -3.37648628147552
H          -0.55329912325218    1.05179166406805   -2.35298305581181
