    26
        -50.44417832  Gyration_radius:  2.47147953824 Dipole_moment: 5.377
 S           0.08882818005061   -1.23128786218139   -1.71125709180253
O           0.40713122202194    0.10283635041099   -2.14180860700962
O           0.16358749962176   -2.28573822107126   -2.64911005076716
O           1.01726360243926   -1.57860030554110   -0.50176238666919
O          -1.32579449467308   -1.23662364414291   -1.07590751280183
H          -1.49966850594565   -0.39298472613913   -0.54977997304700
H           1.34326462934234   -0.74612114923078   -0.02841723142639
O          -1.85443731766633    0.78602243773716    0.40567446194082
H          -2.78553200794015    0.73352917186349    0.62831977526823
O           1.95068855017045    0.45435908078164    0.74419649445891
H           2.87991601928641    0.27385233622168    0.90119664448282
H           1.92877214467550    1.20745106708495    0.07137743892215
O          -0.70396664545238   -2.82670786920158    1.30513397299977
H          -1.47581229857420   -2.96168414639313    0.75066963905305
H           0.02307133039370   -2.64503787658991    0.69345149916982
O          -0.71286929786596    2.54758761414169   -1.43967097474949
H          -1.18398501109517    2.18372029258305   -0.67817923021541
H          -0.51644645457192    1.77763860430284   -1.99267320671957
O           1.93173960969610    2.21623476425524   -1.13834013030605
H           1.86245851121135    1.58329295005806   -1.86424011203600
H           1.04628625858051    2.63921268537129   -1.12759110878277
N          -0.48738664214614   -0.14041197688212    2.38348038966570
H          -0.57234101947113   -1.14969923144734    2.25828571633904
H          -1.32983410471049    0.48965647693314    1.24166023155727
H          -0.66295467456875    0.08099758982309    3.35429281338984
H           0.46802092717407    0.11850557729838    2.16099854907663
