    26
        -50.46217715  Gyration_radius:  2.44057562125 Dipole_moment: 4.505
 S           1.44540124216113   -0.56879398714639    1.42534595484294
O           2.01054048940174    0.72631407869001    1.09363455212346
O           2.37377824933870   -1.55402771593975    1.87370000732207
O           0.45241061981897   -0.30800651949835    2.67774197138201
O           0.52873201091601   -1.01112193015418    0.36993270522287
H          -0.05158470689559    0.57109724882883    0.39037025822219
H           1.02826613255296   -0.56221956388183    3.39020916307448
O          -0.49295270467356    1.43837599602994    0.25421272908563
H           0.21062482735277    2.08040348551484    0.38030988683093
O           2.32898817422095    1.34428233322394   -1.44437338830720
H           3.27136036302112    1.41826840784540   -1.60119445216957
H           2.23513417812307    1.14345100089401   -0.48370210454052
O          -2.28118012198534    0.18343860862093    1.97189761410270
H          -1.91217949603486    0.91147469819671    1.45085774568476
H          -1.53959567889702   -0.12367218480500    2.50705697063492
O           0.92017730886852   -0.77064710821348   -2.28932246299973
H           0.91199429443499   -1.15190149032429   -1.39290634591399
H           1.48633200826007    0.02562900105809   -2.19191747720952
O          -2.08793752908594   -1.60746728769572   -0.03118286817109
H          -1.14114030559142   -1.73125352029802    0.15472050165394
H          -2.40219483737438   -1.05944308013823    0.72104244257269
N          -1.48803601856710    0.13861395642522   -1.87938513588641
H          -1.88744151093752   -0.62082719376207   -1.23166125195486
H          -2.12080037852363    0.39797807308559   -2.62641673628050
H          -1.25213249854952    0.93179948616177   -1.25497767446843
H          -0.54656412125212   -0.24174480284957   -2.23399262481823
