    26
        -50.44261220  Gyration_radius:  2.58850552984 Dipole_moment: 3.650
 S          -0.80719724711402    1.20538357944890   -1.71474191011632
O          -0.39486528813652    2.44246189692125   -1.10069200891711
O          -0.09643330705206    0.82311439756786   -2.88643650779058
O          -0.69763945669460    0.07754322800706   -0.64311139838071
O          -2.32298439787179    1.22618436116699   -1.96183612512693
H          -2.75216099913849    1.20655028022168   -1.04755009601552
H           0.29372399008223   -0.12582096598692   -0.60869578404578
O           1.79928109354864   -0.13387718460914   -0.98477023824307
H           1.68703352009774    0.13079975072683   -1.90466881484477
O           1.16359115070356    0.37818420362593    1.79059422379338
H           1.64708647754980    0.45877492263882    0.96087184308244
H           0.43053618626643    1.01204712497966    1.74817280714173
O          -0.87126230221752    2.30380783526405    1.43830803095119
H          -0.83895730819117    3.16743048662819    1.85440094797508
H          -0.62788416380172    2.44005716103810    0.48882412722611
O           0.44623284104554   -2.24187062973706    1.74520597287347
H           0.65206430990188   -1.28327816051211    1.77265730438715
H           0.63863402909379   -2.57179348348658    2.62413282369238
O          -3.06672162093746    1.01646258693702    0.49573299678906
H          -2.84528916711163    0.09011841759933    0.62976940331221
H          -2.37153346858516    1.51851025631922    0.97031168121902
N           1.81213944242402   -2.74935838669295   -0.75550976738657
H           2.65756460116020   -3.28765174524752   -0.61748688734788
H           1.92844853918232   -1.13639489168472   -0.96719295381668
H           1.24660688665045   -3.22112076517475   -1.44933918357851
H           1.28998565915014   -2.74626425596245    0.12304949315217
