    26
        -50.47252425  Gyration_radius:  2.4218803579 Dipole_moment: 3.403
 S           0.90154228572417   -1.56576179129661    0.11749899903111
O           1.40306648804823   -0.84965132240242    1.27502921979556
O          -0.54391059582615   -1.57803392744482    0.02933579013801
O           1.52515404917711   -1.08584854317703   -1.11161310404943
O           1.34303068752620   -3.07040897231780    0.29546859259430
H           2.25403887255979   -2.96740575306340    0.54609792230661
H           1.94057746548672    0.46322674659735   -0.70610573485293
O           2.07362881631575    1.34770884885262   -0.29741980147718
H           2.37872579554310    1.14021621580644    0.59137612264632
O           0.23235705129042    0.06218936032341   -3.16022372810172
H           0.70425424751821   -0.47782540813125   -2.49564333102352
H           0.88966135357647    0.64967581392410   -3.53627273981827
O          -0.40909685563993    0.72020866605762    2.45031954842801
H          -1.19552117744217    0.13872807454829    2.48584912564597
H           0.31824991419668    0.12475890938111    2.17293254263437
O          -2.34170718517774   -1.08657346933795    1.94475885454339
H          -1.70488358844082   -1.43396456794255    1.28996170985857
H          -3.14130764759814   -0.88938647330321    1.45339564425186
O          -1.73565126883019    0.37177577807949   -1.34938163037295
H          -1.44014468172924   -0.43389842172883   -0.87886532525422
H          -1.23095111610208    0.34547667939522   -2.18457994018992
N          -0.45514730720028    2.04843179838670    0.20746186688430
H          -1.05839106291330    1.46477399782984   -0.45542670394016
H          -0.73402561000892    3.02259215968367    0.21299843606318
H          -0.52338460833185    1.60619763956012    1.18594043811156
H           0.54983568827831    1.93279796170978   -0.08289275386300
