    26
        -50.43783196  Gyration_radius:  2.51904057893 Dipole_moment: 7.113
 S           0.45747845195391   -1.91735581030785   -1.19097511930934
O          -0.87494449606619   -1.40167083385852   -1.35121988818423
O           1.16330725309360   -2.25225430766506   -2.37416485397495
O           1.28005665803232   -0.87300009729061   -0.35144209278684
O           0.45379173072010   -3.09771927760595   -0.20499996013831
H           0.12893312192584   -2.72019191837921    0.66095455676670
H           1.33928416924122   -0.02486338956797   -0.86299796462486
O          -0.44860798166743    0.67632523920599    2.04747733703210
H          -0.87081895355197    1.03393345603403    2.83030419956548
O           1.51692494596342    1.47313047314086   -1.47107367200213
H           2.36284403582414    1.63104009322621   -1.89451651253031
H           1.55967923847745    1.86914803792784   -0.56260538036109
O           1.69445842642883    2.00714203069616    1.09926590495366
H           2.41961323666099    1.44786916269259    1.38447301555241
H           0.88021960177452    1.57280894529086    1.43658183533504
O          -1.17550289343016    1.20472591436719   -2.41679225946435
H          -1.17661964638455    0.24428571929534   -2.30105446788536
H          -0.26192573003207    1.47619928066809   -2.27625590677644
O          -0.14851417192945   -2.00143709535476    2.06293713425763
H           0.64106804001918   -2.17066309747848    2.58099174186301
H          -0.23698289084460   -1.02183413549872    2.00178427227402
N          -2.23436247429877    0.59288048617143    0.19807069681747
H          -1.99878523742740   -0.30483751048148   -0.22406403747786
H          -3.22174047461140    0.58491601910788    0.42069735708378
H          -1.16583173477177    0.69657119132741    1.30223294509657
H          -2.08302222505040    1.27485143423348   -0.54360888108521
