    26
        -50.47201724  Gyration_radius:  2.51762797065 Dipole_moment: 1.423
 S          -0.87362241497195    0.97902950965095    1.50971520776403
O           0.23706557091077    1.32873570411960    0.62366564541659
O          -1.97155192071897    0.38355016655702    0.77799266151046
O          -0.42390366816613    0.20478189829447    2.64639338926039
O          -1.42370216620552    2.34501602501963    2.08857908682720
H          -0.74686727387552    2.57997965685705    2.71427289035937
H           0.36346489611388   -1.11260829561955    2.13600116302033
O           0.80933329150449   -1.90100095699404    1.73686270347606
H           0.93243437731558   -2.52773914119037    2.45175596767291
O           2.51028598997540   -0.16359422201923    0.38278245892145
H           1.83537119839677    0.51897952017687    0.53926805812099
H           2.15185428889091   -0.95418271260965    0.81349548221443
O           2.51545036231793   -0.28752788422588   -2.27634394451208
H           3.15011476762427    0.35319995062166   -2.59865242006616
H           2.63829588458326   -0.32411128417606   -1.29552151070131
O          -2.46487864098371    1.29798079113334   -1.70552348908701
H          -2.35429100599184    1.03330673184404   -0.77018690355200
H          -3.40816625107952    1.38450348586020   -1.84652158262764
O          -1.07003840923763   -1.94931811310880   -0.25311559989904
H          -1.61939076222516   -1.27592435952519    0.18598717135647
H          -0.36975646212394   -2.16334342257372    0.38795272043784
N          -0.07662325691823    0.05003900048916   -1.68594749093332
H           0.83386273627102   -0.06607155127756   -2.17769911308276
H           0.07183018068942    0.65159129293734   -0.83834361246300
H          -0.82137688580686    0.48855589088954   -2.23599351716201
H          -0.42519444631000   -0.87382769113856   -1.31087542226698
