    26
        -50.46082452  Gyration_radius:  2.39856427085 Dipole_moment: 3.778
 S           0.91847542527906    0.70208915163580   -0.28272278173309
O           1.35765470502344   -0.14538346735561   -1.37521025953808
O          -0.54111604622140    0.64145724225642   -0.13770172721189
O           1.56341272919003    0.34897894602626    0.98330946608040
O           1.29448978721824    2.17303209913558   -0.57649758590974
O           0.23091931885240    1.28117712260583    3.13522155489745
H           0.28035923723243    2.23489513706352    3.20580445753216
H           0.82735466962873    1.02923208575100    2.40414543322073
O          -1.39170520431587   -0.57408693040413    2.04137885900017
H          -1.22322898063003   -0.04899124239668    1.22378037161404
H          -1.07565400881468    0.01645922299083    2.74876929556516
O           0.41247771865522   -2.52141698039677   -0.78043118632928
H          -0.53070652829891   -2.33394125365471   -0.99843814120389
H           0.89981780887722   -1.74055757428124   -1.13690955802232
O          -1.97213705873885   -1.38931469520626   -1.08755915375625
H          -1.51088789581977   -0.55450471526143   -0.86316841365485
H          -2.61347730808943   -1.53190710995115   -0.38760025832735
O           0.67117884205231   -1.94445953041909    1.61609233956396
H           1.22292689647598   -1.10624222286468    1.46930903720299
H          -0.25658283929206   -1.53143901375050    1.89031800501343
H           0.55764173421752   -2.33460172297015    0.60402810614502
N           0.10971332453638    1.90711209130452   -2.86781016340131
H           0.49213998370756    0.96604485948900   -2.83344420758905
H           0.87889654885046    2.30950692716399   -1.47938745992349
H           0.28913561248759    2.30417134650963   -3.78113388552988
H          -0.89109848206305    1.84269020697971   -2.73414214370937
