    26
        -50.45550925  Gyration_radius:  2.6071634635 Dipole_moment: 5.870
 S          -1.04143715245868    1.72717459541967    1.42703707427426
O          -1.63148074437484    1.95163044570627    0.11724833477847
O          -1.65789542251297    2.40202959775738    2.52259339880688
O          -1.30227589126946    0.14714821388668    1.73661092488632
O           0.41610410428534    1.83206100882551    1.35427783785037
H           0.77239140381252    1.97070557664429   -0.22396749764714
H          -1.83429521537073    0.27485012652212    2.51393547504661
O           0.80502970078300    1.97714479849883   -1.21259379045237
H           0.00864535055606    2.46243701993163   -1.44868353909739
O           0.55674112601242   -1.73618613987388    0.85563869365631
H           1.29378070862038   -1.23025730483914    1.27136909732028
H          -0.23630399197566   -1.38621983955782    1.28541066253815
O           1.36104965619547   -3.03792030630251   -1.59306180771567
H           1.15747886880649   -2.90411032442397   -0.65744175909633
H           1.78242810083285   -3.89494037345323   -1.66254338388575
O           2.23618474109277    0.01676873012344    1.90687631145731
H           1.56643840911977    0.73248262105045    1.82386715758074
H           3.03777141630594    0.36432135263670    1.51263292177399
O          -2.48967471341547   -0.00186884387644   -1.35429899249381
H          -2.23863567907839    0.71905398925116   -0.72128119963240
H          -3.11470714733387    0.39201713175450   -1.96434397252882
N           0.11724753262838   -0.55794818819545   -1.52494654217522
H          -0.92003262622511   -0.49002548345163   -1.63351618352135
H           0.54440301015725   -1.16002761324497   -2.22656452733792
H           0.50519407919885    0.42839806703223   -1.51738591604673
H           0.30585037498794   -0.99871885806705   -0.58686878787781
