    26
        -50.46906636  Gyration_radius:  2.46881364752 Dipole_moment: 4.274
 S          -1.89134263937362    1.05880592463778   -0.12425812542805
O          -1.82764839971988    2.06064230849209    0.91414773988768
O          -0.79540372047310    1.18074921811831   -1.08995447421921
O          -2.02459314316605   -0.29940431519017    0.34864803640112
O          -3.21601754046017    1.37761993413171   -0.94330661131326
H          -3.29531544678160    2.31498734605900   -0.80167823106762
H          -1.30098353341883   -1.69191834572415    0.07682889184910
O          -0.79014474832982   -2.51532243394749   -0.13547081739937
H          -1.37753417596048   -3.24866349454707    0.05074848737908
O           0.17568922302866    1.00402255551875    2.20155650203854
H          -0.60791377863010    1.39211502434359    1.74881379230611
H           0.04046795836803    1.14569984134726    3.14036466592614
O           1.29923381167589   -1.42926981449413    1.44953461407615
H           0.88316846309453   -0.61344021780499    1.77480369923145
H           0.59444045984796   -1.93624557949284    1.02269764531756
O           1.60545316895843    1.92711621261202   -0.01087614951466
H           1.37051992124668    1.78798998785806    0.91733518075067
H           0.76241388520066    1.84215403421538   -0.48767824188164
O           2.69629732999870   -0.42756952540139   -0.58106354858060
H           2.51402542561372    0.52759649468961   -0.40848274343963
H           2.41171740965490   -0.88013136975200    0.24749318253899
N           0.54931323892074   -0.93209647587653   -1.89434022161440
H           0.61448175479554   -1.05840865931976   -2.89745033595114
H          -0.03518353945988   -0.08403067466349   -1.65521594106133
H           0.10897127614663   -1.74379201471403   -1.43332116994967
H           1.53588733922357   -0.75920597109504   -1.42987582626202
