    26
        -50.44955640  Gyration_radius:  2.46781527345 Dipole_moment: 6.187
 S           1.84438520611050    0.84951068636804   -0.83685135453534
O           2.00845990661048   -0.28588539903719    0.05209472429194
O           2.96690335215956    1.20493971326525   -1.61915742414161
O           0.60510383808780    0.59862883413428   -1.70582778698480
O           1.43050489154484    2.07583176888110    0.02820384726866
H           0.50143419433123    1.94483085127639    0.35097818850582
H           0.04013996533966   -0.24389534737881   -1.37641384830280
O          -1.06677483047880    1.87802745749404    0.75889210648410
H          -1.35266941923486    2.74721388763636    1.04531626060367
O           1.19443685956636   -1.24962552874252    2.39747304326962
H           1.69954607179475   -0.87568341051356    3.12008108730311
H           1.56146771117041   -0.86649471164814    1.57530082128657
O          -0.74350537292497   -1.34620373464103   -0.94396118059261
H          -0.08025537013291   -2.06806457805574   -0.84079074231253
H          -1.05983033434743   -1.16350500827823   -0.01667966519624
O          -1.34709346981269   -0.76642265355239    1.55021075023433
H          -0.52504216937699   -1.03660480827881    1.99917195712002
H          -1.32558210847358    0.20015785158384    1.51265896830591
O           1.31439631458956   -2.88857222836903   -0.25545849015659
H           1.19095614018664   -3.11299840964499    0.67152313006306
H           1.82290683319679   -2.05985568517425   -0.25399437084484
N          -2.22425573892083    1.29885531999896   -1.52986229694723
H          -1.54746211208676    1.68128376431973   -0.11166564506269
H          -3.02828280193445    1.77664018353271   -1.91695411144127
H          -1.44529046569295    1.39974457849768   -2.17182302834040
H          -2.43459710127453    0.30814662633895   -1.48246494986703
