    26
        -50.46822085  Gyration_radius:  2.44907011578 Dipole_moment: 4.558
 S           1.49733101005818   -1.37830522921397   -0.29491910091182
O           0.55885344677450   -1.88175363512515   -1.26633606686654
O           1.97380791910190   -0.03434577497571   -0.61703734356656
O           1.02501294567388   -1.44884048728139    1.07845220673025
O           2.76025901038671   -2.33266516381957   -0.37436950833756
H           2.71333286932637   -2.58859022410263   -1.28866061785224
H          -0.53815456611551   -1.41455985323030    1.39343192886890
O          -1.49476969245294   -1.28101791593918    1.63048697759206
H          -1.69863845288914   -1.94336664055358    2.29196321519885
O          -1.99257884763199   -1.06824594729688   -1.14837238595745
H          -2.11474966486253   -1.26908544329486   -0.21148896212874
H          -1.09941840824863   -1.40467510428512   -1.35761957688477
O           0.78417882785917    1.59822246573033   -2.32299213689807
H           1.22445633798876    0.91797248340875   -1.77091763489803
H           1.37258113083916    2.35463570860643   -2.33103827865926
O          -1.65256134589877    1.55048018424630   -1.21976647117458
H          -1.90885195251055    0.60329058821375   -1.34929994472823
H          -0.81759861611640    1.65121160197537   -1.72560067849429
O           1.51950895127869    1.18066470113556    1.63683133309094
H           1.57824148253191    0.38274020773415    2.17344809847253
H           1.79337507180966    0.85778993006164    0.74591627353619
N          -1.10437591516763    1.40550120122873    1.28678236951834
H          -1.56453490040432    2.11410687948318    1.84691396700121
H          -1.42932958965795    0.45745755210466    1.54570763312960
H          -1.33164943852799    1.54375176680442    0.21671835239530
H          -0.05372761321730    1.42762613831612    1.43176636178638
