    26
        -50.46829642  Gyration_radius:  2.59329552621 Dipole_moment: 2.341
 S           0.75208508758285   -1.09173800090739    1.61317914620111
O           0.28274461768055   -1.75711554152689    0.39428146549158
O           2.00256458691504   -0.40576682898576    1.41040711507113
O          -0.29326900176515   -0.25526013449698    2.18194215022618
O           1.01926434681631   -2.23488377358911    2.67428146500832
H           0.14727014395363   -2.44326289577880    2.99600697874081
H          -0.32730016607919    1.25558011844117    1.39733732056493
O          -0.28285204947189    1.94792940406924    0.70510024625306
H           0.65195559512887    2.18103557298619    0.61956997147746
O           2.43658050617337    1.72342294431411   -0.00886494865851
H           2.30225484679383    0.88423851408481    0.49977443248356
H           3.31993085357805    2.01814542134543    0.21890521756996
O          -2.31633870307574   -1.61821108893467    0.88429268297797
H          -2.19831039629163   -0.91045172732809    1.52853907071591
H          -1.39913719442599   -1.86210501422213    0.64752902052380
O           1.64764712082721    1.30255955109316   -2.57819917745131
H           1.60792360243898    2.16615184292744   -2.99180295678691
H           2.03851735763162    1.43898448492366   -1.69027995760370
O          -2.97335752930622   -0.73739928001611   -1.56110358580790
H          -3.27456773342730   -1.49091007460687   -2.07004142192727
H          -2.89649659989129   -1.05068681930413   -0.62920535805543
N          -0.45499193123905    0.18687946380347   -1.27637031253736
H          -1.40161535184080   -0.06381613499835   -1.62772129081184
H           0.21411071441291    0.47628849567501   -2.01216041377186
H          -0.52909353991632    0.97468945095591   -0.57461937210875
H          -0.07551919321928   -0.63429796994260   -0.75077748778665
