    26
        -50.44335536  Gyration_radius:  2.49199491088 Dipole_moment: 4.927
 S           0.38329691005572   -1.22149611293332    1.70873544504388
O           0.66448199206237   -1.06968987876767    0.28809205948559
O           1.49097234606301   -1.57973266245821    2.51044152821508
O          -0.30667711434561    0.07965195452578    2.17577142848526
O          -0.75052121371923   -2.24667025528878    1.86485865984951
H          -1.59434684647632   -1.80654490614602    1.51942992690007
H           0.32883910280719    0.86916598067281    1.97162769775815
O           1.17972847534913    1.99970643654047    1.57753955414490
H           0.93949425892486    2.79617390833503    2.05542802973985
O           1.95324852897109    0.04867409020878   -1.93425755186070
H           1.87572562206743   -0.31249125432878   -1.04158541220090
H           1.40716428027013   -0.52519672822450   -2.48288003477564
O          -0.08324816940247   -2.08799664792553   -2.15453744354823
H          -0.04260543777474   -3.03472323273286   -2.29365400831214
H           0.23583407960561   -1.92587421080662   -1.25088288042955
O          -2.74205977938723   -0.88686233432275    1.01286873408755
H          -2.78555614294360   -0.21081094009097    1.69383549311859
H          -2.36680590343702   -0.44361436409291    0.21152589606974
O          -1.34134949110979    0.19434334512730   -0.95817090643787
H          -1.36541247617377   -0.35596876127114   -1.74985509057617
H          -0.53331680496726   -0.10036430860977   -0.49033418587970
N           0.66395740698568    2.42192442652831   -0.93637538482832
H          -0.29730075128798    2.14550906979184   -1.10602409955733
H           1.00974850930279    2.18578747740120    0.58230581011900
H           1.25618862953121    1.73977980224476   -1.41462381477377
H           0.82051996901760    3.32732010660744   -1.35927944984002
