    26
        -50.46886383  Gyration_radius:  2.42856502917 Dipole_moment: 7.699
 S           0.58546388893658   -1.73842396077532   -0.31458625851855
O          -0.60164644564820   -1.39284756327432   -1.12030329870534
O           1.80524072093266   -1.63053048647781   -1.07192412015127
O           0.62577886474346   -0.87711133061069    0.87553479579673
O           0.40337836766630   -3.19349440418589    0.17371723651526
H          -0.53182433397144   -3.19685172128238    0.50393534884379
H           1.29860166125689    0.52774568101001    1.05022576932789
O           1.62529837514879    1.46577159727835    1.14615776980357
H           2.05232480564163    1.50058913331366    2.00369820790506
O          -0.82737490515207    2.41030200106491    0.59682872456821
H          -0.90021402918978    3.34454047718572    0.79707683271675
H           0.06475529744061    2.12327993071274    0.90064132481287
O          -1.75614818541952   -0.18731189692683    1.83335480984828
H          -0.84877849430951   -0.45184874237067    1.58315114393354
H          -1.85765995337279    0.70756906262633    1.49674323906301
O           2.23489966773164    0.93147031205871   -1.53623901528040
H           2.36504181142372    1.25924640947513   -0.63411126711746
H           2.24098912842248   -0.05163748129057   -1.45837627291194
O          -2.10267936974567   -2.68142387398201    0.67973289594249
H          -2.19500498797291   -1.95406566174840    1.31865914954300
H          -1.97682507217067   -2.23917170948213   -0.17379947215852
N          -0.36211032704108    1.09055600452688   -1.74897434048089
H           0.70931769905818    1.14895400923574   -1.78533130074768
H          -0.55700765847454    0.05419757820837   -1.53582613155029
H          -0.70419460394803    1.66362238057924   -0.95422428909526
H          -0.78962193191092    1.36687423508462   -2.62576149193644
