    26
        -50.45754318  Gyration_radius:  2.49203653964 Dipole_moment: 6.117
 S          -1.08956994837463   -0.68551521023141    0.35244927644533
O          -1.82320515587252    0.05651678583285   -0.69140902567906
O          -0.56082523877844   -1.93910886964053   -0.11949529721823
O           0.14344780076139    0.27358280947096    0.64081997745118
O          -1.84071606095818   -0.75375299712062    1.58410597313820
O           3.20016771426742   -1.50444397280719   -0.83256262338110
H           2.43856665983773   -1.55458192489483   -1.46557257235324
H           3.77153126807848   -2.24240059804355   -1.04913467255266
O          -1.48430596717252    1.55130473787206    2.66899114385543
H          -0.57570918286617    1.49623723381025    2.97498017852026
H          -1.71621200154669    0.62394069280244    2.38234353187483
O           0.25508317086778    1.03872650871401   -2.08778581414376
H           0.86209573951136    1.04914803525734   -1.34131391092066
H          -0.56909319909272    0.64835162330472   -1.74549933115802
O           1.00904721941133   -1.64577531321308   -2.30965647904948
H           0.78445588822818   -0.74226010364712   -2.58379148132415
H           0.36615850396178   -1.88028637246266   -1.61441259152924
O           1.69055670971137   -1.58983607496484    1.34952106659867
H           0.84643781143994   -0.36017602509678    1.01080678857119
H           1.00976845032348   -2.19427617208872    1.01826914471496
H           2.37931716440712   -1.55847661461515    0.63936824146819
N          -1.82463005872745    2.42298338174362    0.23721685725196
H          -1.91222106119900    1.42645928087328   -0.21628024652515
H          -1.65526581908349    2.21082157329130    1.28047682466780
H          -1.02787787302978    2.89506338017380   -0.18265773433235
H          -2.67700253408902    2.95775421568426    0.10022278560608
