    26
        -50.47194233  Gyration_radius:  2.49785421137 Dipole_moment: 3.374
 S          -0.72606522093448    0.78552106315706    1.93616558108877
O          -0.92690070291680   -0.52858665689108    2.51531143636062
O           0.64396094098304    0.96852363241531    1.46941224257694
O          -1.70519501519032    1.13430794846739    0.92569282577516
O          -0.93413263302778    1.82560747168631    3.11300275114312
H          -0.39732370385897    1.45446668648341    3.80512313494804
H          -0.71234787521277   -1.72258698442494    1.48499603194647
O          -0.56164315234611   -2.40760008362218    0.77985212890220
H          -0.87970984751919   -3.23472159391812    1.14542763659703
O           1.90635913966326   -1.17612714397007    0.47563755039235
H           1.16596505304729   -1.79875146457250    0.54279290694033
H           1.57812430752254   -0.35778519556032    0.89633885056971
O          -1.79628990639335   -0.72406331166828   -0.97074396280797
H          -1.94958654349954   -0.04683935532796   -0.27832200591547
H          -1.39870531810262   -1.47466517714447   -0.49301637101036
O           2.28404094842563   -0.71440857241659   -2.06929951639073
H           2.44597857203604   -1.57727422037745   -2.45250895664236
H           2.25153988569129   -0.85568721914225   -1.08274488429099
O           0.00427846766195    2.58390132125344   -0.48511476350972
H           0.56008164467323    2.16467849646903    0.20141209448956
H          -0.88573325161636    2.41755825595908   -0.13062837100532
N           0.01008054382130    0.65812350433090   -2.29250694443228
H           0.92744604352400    0.14339299948048   -2.29274226828008
H          -0.24845848287393    0.93933023682468   -3.23155112680089
H          -0.73982111532420    0.03467045315440   -1.85838903306973
H           0.08405721186555    1.50901488938995   -1.65359697757074
