    26
        -50.46616740  Gyration_radius:  2.52747891311 Dipole_moment: 7.226
 S           0.06244776953387   -0.54909697216627   -0.28932216183796
O          -0.14805083804817   -1.34200461456519   -1.59739576494096
O          -1.20683371882828    0.10367457979085    0.05066807506196
O           0.46056211190065   -1.47517491654862    0.74810390745602
O           1.09478331165358    0.46652994579292   -0.54057485070917
O          -3.06197812400574   -0.96974101053298   -1.70225692040635
H          -2.52948075886382   -0.69339417429305   -0.94040061037585
H          -2.54169583283336   -1.64310333019809   -2.14596710402851
O           2.74245820753713   -1.52318476235206    2.04214605808624
H           2.71122031055158   -2.22565371921525    2.69343586475573
H           1.94965315166240   -1.64600574552733    1.46857790908678
O          -0.65785803187431    0.50104386447140    2.58865464268291
H          -0.99442219818054    0.44331773073539    1.66487319966799
H          -0.72110419790706   -0.39783437332383    2.92140444546782
O          -2.04022132128246    1.65924023451919   -2.02481359569263
H          -1.75966785891012    1.33103722704979   -1.15262335370909
H          -2.75345242025743    1.05782342453598   -2.27932776427803
O           0.17105413522448    0.67795149356822   -3.09157350790941
H           0.81629080316973    0.99540031090038   -2.44546655251373
H          -0.04004151574971   -0.64158613464723   -2.32738219014905
H          -0.66711328147109    1.16437852426265   -2.88584646931139
N           1.84768017231534    0.97210224802604    1.87336789577521
H           1.64668408609498    0.87643658059018    0.82401032522185
H           2.39683519246516    0.11942607834058    2.12723824161899
H           2.33076038687172    1.83499997671513    2.09796192118017
H           0.89149046884315    0.90341753397461    2.32250835971481
