    26
        -50.44895907  Gyration_radius:  2.56118082748 Dipole_moment: 3.802
 S          -0.91637456171268    0.13576897548684    2.44417561694969
O          -1.27076985857381   -0.81211937442730    1.39120912791446
O           0.48095778025003    0.09684058796053    2.78510081935969
O          -1.39624162052697    1.48163799735670    2.10333128138103
O          -1.73690653932318   -0.27508614427527    3.73255674787073
H          -2.60308463309136    0.07204735757966    3.54240475483983
H          -0.81609612057874    1.87041771651577    0.83022682177517
O           1.67448126398658    0.53315700990632    0.49190703442454
H           1.47708278424119    0.47136021854565    1.45250304245583
O           0.08853826508503   -0.98549238800654   -2.77918903590398
H           0.74625058929313   -0.26752928563019   -2.65410398304204
H          -0.12053119477091   -1.00250948150040   -3.71417537211094
O           1.72232610834031    1.11984862510917   -2.26803685096588
H           2.12641553742305    0.95092241915785   -1.40671495314724
H           1.25244530320144    1.95351338998883   -2.18593927451045
O          -0.35270451605830    1.87199746894949   -0.10900507769796
H           0.55549209448660    1.34649340593905    0.09102518456326
H          -0.96740936351246    1.18751926857773   -0.63738310823988
O          -1.74389228771868    0.03638390408384   -1.06837951565791
H          -1.72173454290985   -0.41901228260592   -0.19648164643604
H          -1.17025994094633   -0.47322933387771   -1.67810802437601
N           0.94248404390034   -1.89657740187049   -0.07884391460202
H           0.64986134643062   -2.07884120844961   -1.03146722083898
H           0.11347712297392   -1.81481865352776    0.50827870087539
H           1.48803645686001   -2.68141387448870    0.24869283017727
H           1.49815648322533   -0.42127891657394    0.18641600485570
