    26
        -50.45861621  Gyration_radius:  2.51710259745 Dipole_moment: 5.345
 S           1.32959945995111   -0.45639359858019    1.67447463061529
O           1.37633161808943    0.82683618629103    2.32382217986765
O           0.06284522139420   -1.14887503679013    1.74544492814362
O           1.77767808965441   -0.37986476581305    0.26826761394097
O           2.39856047880765   -1.36964536325834    2.41621286048064
H           2.91627199918322   -0.71884235846478    2.87858628813800
H           1.43762362494606    1.19728486178861    0.02784266555724
O           1.05566091607831    2.10230370093205   -0.05715152223797
H           1.08990876215400    2.42282968861602    0.85103914903871
O           0.68252742613970    1.30970632500279   -2.80815236590772
H           1.38827238765421    1.48106745471755   -3.43245872487997
H           0.96335124066270    1.70229743411128   -1.97138570303192
O          -2.50319934302923   -0.31477073125364    1.20782447476470
H          -2.38389922438220    0.44801157964645    0.63165770443457
H          -1.64127741807090   -0.46356721775946    1.63108018697853
O          -1.44109456770504    1.49066466647866   -0.77797691613624
H          -0.58435183878387    1.82929759365965   -0.42430021081252
H          -1.58478119523290    1.95489529045497   -1.60584731774388
O          -1.62443190400009   -2.66537005771142    0.20569072479850
H          -2.29919378690563   -2.02350608609202    0.50416969837843
H          -0.95568458530745   -2.61044821586213    0.90565269396655
N          -0.29516161401697   -0.93684596847416   -1.26413050946572
H          -0.85031973452911   -1.73070040843573   -0.81635711424036
H          -0.83709893917475   -0.04715139857914   -1.17202564157567
H           0.58915168029144   -0.80681010274760   -0.70091968084299
H          -0.06728876385620   -1.09240346188474   -2.24106011223705
