    26
        -50.46616737  Gyration_radius:  2.52746990138 Dipole_moment: 7.226
 S           0.45380459824557   -0.34840831499160    0.24816193396105
O           0.20739389443969   -0.49029436447646   -1.19382916224663
O           0.06059192545944    0.99391796805902    0.69141202413733
O          -0.23238949923312   -1.36608895689689    1.01357380749469
O           1.97197275028051   -0.49973137005602    0.48500247962882
O           2.28670416216481    2.00487089976613    1.99090224509196
H           1.41866360616018    1.66047158654222    1.72967751751534
H           2.87299521565330    1.24508742472920    1.99000330195441
O           1.54202570885796    2.87639831496321   -0.60615197459935
H           2.07445993116458    3.09274530891331    0.17158957941050
H           0.81343917655856    2.34029672026198   -0.24710410475770
O          -1.68863661803809   -3.33972420132624    0.08184879434217
H          -2.04205182062295   -3.83608375378423    0.82166640214693
H          -1.01864718823219   -2.72319674925783    0.46088967240195
O          -2.50142872438692    0.47533755072180    0.94882869782872
H          -2.48782757419629   -0.07332635629667    1.73714189368896
H          -1.58285778972804    0.82361079357003    0.87827426526288
O           2.61258922174592    0.69727864754651   -1.65301727942406
H           2.39147228402264   -0.05441000662775   -0.32792759045238
H           1.82403909579610    0.30617803015997   -2.05275277407019
H           2.35108766844082    1.62025745496057   -1.40551170059932
N          -2.30186926172091   -1.08472929263195   -1.18128450900001
H          -2.30408132498791   -2.07024382612030   -0.83246916558161
H          -2.58067125377836   -0.44458184653552   -0.38549170582564
H          -1.26975238369396   -0.84799597828136   -1.35248911423934
H          -2.87102577042661   -0.95763565295846   -2.01094353406547
