    26
        -50.45147872  Gyration_radius:  2.46515444454 Dipole_moment: 6.105
 S           0.65996046100064   -1.02062344757757    2.06761946386039
O           0.24982379525796   -1.59199706680131    0.80184312580569
O           1.53748511181677   -1.80881879646956    2.85031297878588
O           1.26551667100483    0.38388067994839    1.77960627467618
O          -0.59082089604367   -0.63189423444109    2.87104042025085
H          -1.06243481595726    0.03741396864569    2.28954869589777
H           1.80976738864192    0.40225783285097    0.93195084300893
O          -1.67679844971511    1.12627716613572    1.33741773444381
H          -1.82578711760291    1.90285322208053    1.87955536577730
O           1.28091486918995   -1.35628914962381   -1.68212525120143
H           0.50966187027374   -0.95115761793497   -2.12522741791462
H           0.92752720944897   -1.71188619409203   -0.84889664739393
O          -2.17196076048506   -1.13073781678413   -0.28081009098512
H          -1.35054430992576   -1.46401235688046    0.12647144300993
H          -2.42054936018939   -0.36788427987789    0.25390477961385
O           2.58460632545619    0.47498480792250   -0.41824693578808
H           2.13189393730591   -0.21473423394262   -0.99903657910944
H           3.48458018395268    0.16941625457942   -0.29187419220457
O          -1.07775991712238   -0.25036244133879   -2.52036453017669
H          -1.56524747859638   -0.60065280960755   -1.72943196067686
H          -1.50625341751525   -0.62873774551913   -3.28901493141122
N          -0.18261121665414    1.89728083936410   -0.67099003632338
H           0.80644969060050    1.74736823163121   -0.50855088969610
H          -0.45473631678664    1.30867583889205   -1.45401092098901
H          -1.05300277802675    1.41808075670389    0.58187402545753
H          -0.30968067933368    2.86129859213932   -0.95256477671475
