    26
        -50.43917848  Gyration_radius:  2.82394125371 Dipole_moment: 2.008
 S           0.70698291642943   -0.89773789350334    2.75589695964793
O          -0.38323269008533   -0.01074826401983    3.03570235083920
O           0.41286214762919   -2.05555946235696    1.97613973662422
O           1.88456173776334   -0.11561469193252    2.17116590362673
O           1.30599808975514   -1.36683788151416    4.13378334214562
H           1.29644985291855   -0.59026591475449    4.68821341781962
H           1.74276009898893    0.04920359045056    1.13546719747159
O          -0.52448955268772   -1.49185496325743   -0.50397016403748
H          -0.27422820099845   -2.01021049932481    0.27619983401862
O          -0.10080929118052    2.42736697628097   -0.80685083111897
H           0.26073703390729    3.31424000372125   -0.83069292374002
H          -0.02081113352008    2.07055769497696   -1.72559517724685
O           1.41774920838746    0.25895351507489   -0.23929914877433
H           0.75397357891041   -0.45465610531454   -0.44370688585480
H           0.90851468542027    1.09712844194352   -0.29490900754028
O           0.52916630894714    1.19902582326403   -3.07430039068313
H           1.36408862269807    0.83000691154247   -2.77270837158154
H          -0.05362386792811    0.42985347245940   -3.23316463207194
O          -0.79677641272297   -1.16764642355397   -3.19595883615813
H          -0.78221894826068   -1.38031956955259   -2.24548211879725
H          -0.50492238758001   -1.95548272228080   -3.65618991545037
N          -1.91618239795283    0.44581757526095    0.60048242037669
H          -1.18612927468971   -0.81895128847343   -0.15795756740180
H          -2.92366438915810    0.50741149735850    0.66266144287098
H          -1.54350169393692    0.37343660496212    1.54508678628290
H          -1.57325404106325    1.31288353252722    0.19998656873216
