    26
        -50.45844845  Gyration_radius:  2.52211926336 Dipole_moment: 5.986
 S           0.09123036943199    0.73729221842411    2.08963242889656
O          -1.00447802042377    1.64950448640122    2.29693854612632
O           0.77975290494111    0.26918152481032    3.25115421501467
O          -0.63817881556213   -0.59672551646850    1.45238652532666
O           0.97056260057267    1.13719673561543    0.99122492316363
H           0.86497578911167    1.75782949599343   -0.50028149337113
H          -1.40517866031091   -0.71467768926131    2.00479124072703
O           0.74437069772714    1.90663098173661   -1.47009225988948
H           1.56499002392518    2.28842379412838   -1.78430287546579
O          -1.90828219277043    1.63922303586720   -0.19112732933389
H          -1.22374626855150    2.10639584967054   -0.68019581132910
H          -1.65601874892792    1.70625829795388    0.75401236369110
O           1.81789502843992   -2.49413421466050   -0.89429816453714
H           2.10763887434729   -2.02749040287935   -0.07728886748484
H           1.70040614863704   -3.41217918074961   -0.64690698804481
O           2.30029604920970   -1.10832990536417    1.34795735076256
H           2.07306180147984   -1.21980764820589    2.27650431700294
H           1.95519023259669   -0.21773965360207    1.15097835679791
O          -2.71158438427120   -0.39985640694417   -1.74846081946376
H          -3.32451817483593   -0.07035552810919   -2.40633988075353
H          -2.57406565598816    0.33390967376582   -1.11006729412891
N          -0.10027391809287   -0.66830181626009   -1.24948092695146
H          -1.01639030809772   -0.82182415530263   -1.70880379332889
H           0.29776673869245    0.24087249667104   -1.56189418910280
H          -0.29425262913451   -0.57442166542979   -0.23582154416566
H           0.58883051787035   -1.44687481774954   -1.35021801018032
