    26
        -50.46669141  Gyration_radius:  2.42809180436 Dipole_moment: 2.347
 S           1.33456459073531    0.66651160258843   -1.38843926974403
O           0.55472611746684    1.73452723509118   -0.76430283951728
O           0.75243904312020    0.21813231902383   -2.63042134428234
O           2.74647135539299    1.28175058314874   -1.74972784148847
O           1.58885859071320   -0.40653666968072   -0.44027293369482
H           1.58763617880496   -0.20805399494745    1.17017646780629
H           2.59127627135769    1.58174565013438   -2.63882756509492
O          -1.17094012656393   -0.74922275150737    2.00395148196903
H          -1.57651194298113   -0.19028967155591    2.67153927256553
O          -0.16316291479186   -2.46941470051675   -0.23733979838593
H           0.57372115530541   -1.83904873519757   -0.33511601712098
H          -0.58626710331248   -2.26238958345864    0.60174298408329
O           1.45981191058275   -0.22283826510688    2.15020918641241
H           2.07219201740697   -0.88049746049837    2.48426138825292
H          -0.20316119853763   -0.58147896199718    2.09468067288063
O          -1.45359163278556   -1.23445758934926   -2.23708631355512
H          -0.67310005386036   -0.77604424955254   -2.61062775487726
H          -1.07753382119981   -1.94686219581977   -1.67862818308709
O          -0.27938570669278    2.01830600800867    1.89033057314875
H           0.06056129468130    2.18443397301277    1.00021536357168
H           0.44224886234917    1.57170959819949    2.34415661995440
N          -1.74185442943119    0.50969001768617   -0.33498908804073
H          -2.57072441202472    1.09313095405628   -0.29253832715779
H          -1.58882296079103    0.02037313828918    0.58191345928360
H          -1.78989323319668   -0.21349383180809   -1.13594155102704
H          -0.88955784178381    1.10031758177567   -0.51891863281064
