    26
        -50.45005448  Gyration_radius:  2.51071134373 Dipole_moment: 3.556
 S           1.29572348225807   -0.68756315779938    1.24349071047481
O           2.45683760250206   -1.44213768461735    0.88339842013811
O           1.14109992541517   -0.29369381570708    2.60759355349121
O           1.28554165429037    0.60231751174597    0.35043007917957
O           0.02584474624084   -1.41776268430912    0.80275495854984
H           0.00166406964273   -1.58118776194442   -0.28328835024699
H           0.58864021139967    1.15953899912507    0.81326784589660
O          -0.52893194030139    1.66485121360604    1.80600602644503
H          -0.05177469082307    1.21314558269298    2.51964870148381
O          -1.42795162257621    2.62294182884245   -0.72489312130949
H          -1.14864309611715    2.51167591313007    0.19362629187948
H          -1.36712367042954    3.55835060460622   -0.92527114005464
O           0.00516878203364   -1.69093246876581   -1.64494768282320
H          -0.05133284601945   -0.75707557934960   -1.97841994102929
H           0.93541479748252   -1.97312756713329   -1.82547148211819
O           2.58917862956892   -2.22054002010963   -1.64283186452909
H           2.96312689840081   -3.10333277199600   -1.64631953410126
H           2.67028647410141   -1.89483462452436   -0.72059380298702
O           0.14087253111957    0.88642947904815   -2.18972338671710
H           0.90567581038716    0.98204330916179   -1.60970345293629
H          -0.54542242791234    1.46041275544316   -1.80646907122272
N          -2.50105663646241    0.03110379365136    1.14008367042392
H          -3.29508002013242   -0.19996679384281    1.72228952463686
H          -2.84014413793259    0.26465562274116    0.21523653987822
H          -1.33947462532880    1.09444649576935    1.63942710228711
H          -1.90813988080739   -0.78975819946804    1.06067939531139
