    26
        -50.46471587  Gyration_radius:  2.51614057359 Dipole_moment: 2.413
 S          -0.71526681870489   -1.27614253910949    1.69450357660242
O          -1.21032694020391    0.06542878532353    1.50532071860032
O          -0.60099040048003   -2.00126324340437    0.42959595231354
O           0.51422971604724   -1.34517027290307    2.46316084092049
O          -1.80806053252994   -2.04958198578436    2.54763826754272
H          -1.33835913242514   -2.83753285910104    2.80232408613008
H           1.27368255393722   -0.19779602867204    1.68106751725490
O           1.68222665633471    0.53454107670887    1.15001903061316
H           1.79550399007158    1.26070938110900    1.76679752718719
O           1.62633500232397   -1.36939380188250   -0.96104668271619
H           2.12956360800694   -0.92467591356559   -0.27158180756793
H           0.83683620759587   -1.72133054854508   -0.50492800498892
O          -1.54411681735119    2.66085286893773    0.92885085134547
H          -2.48831802922248    2.80649247755993    0.85215360633532
H          -1.44979373007146    1.75900225559158    1.29454016716347
O           1.54516172066739    0.54012276147532   -2.87745472315113
H           1.57784836070607   -0.22670138399209   -2.26464705873308
H           2.29855028672385    0.44780744634246   -3.46037674208275
O          -1.58583965879784   -0.63550655351847   -1.55275780101506
H          -1.37107001855975   -1.19284739450515   -0.76719248687720
H          -1.18071304732139   -1.07638337694689   -2.30396056161593
N           0.00959474822771    1.38260971304517   -0.84352273689112
H          -0.67480494700141    0.62100717010511   -1.11437915471034
H           0.56883202898438    1.60690962083169   -1.67307303330654
H          -0.52688139985537    2.16318135891617   -0.42559960678741
H           0.63617659290139    1.00566100598587   -0.09545173155410
