    26
        -50.46182804  Gyration_radius:  2.44016970591 Dipole_moment: 7.150
 S          -1.39848808589295    1.25679891019415    0.84226090381981
O          -2.34632628222491    0.96865673175962    1.87502066205320
O          -0.29445014028432    2.11572616843845    1.21297126552051
O          -0.92279691732822    0.07769299319357    0.10845118429276
O          -2.20739122119464    2.04956031904393   -0.30946635791560
H          -2.78888441779239    2.62316521350201    0.18023749321982
H           0.67686765189688    0.56762255856383   -0.05284100250847
O           1.62097203205399    0.76296469024079   -0.24942744202723
H           1.74574867736362    1.64397531289109    0.11280905762244
O           0.05055409573969    0.09491074002851    2.95059726683425
H          -0.89863244372217   -0.03714033261660    3.04107123784948
H           0.12291061593995    0.94965568304591    2.49765495311867
O           1.85840752738232   -1.39983019347782    1.54594877956158
H           2.10887447571137   -0.63872731937904    1.00232059854738
H           1.26146976365139   -1.02690738629924    2.22145296645565
O          -1.27073293859662    0.23766426298969   -2.50252524713228
H          -1.32018316025491    0.18729742424258   -1.52270565006069
H          -1.55871618954263    1.12619262106231   -2.71821858244564
O           0.14198966673566   -2.39637836049441   -0.17162438451264
H          -0.54619552617153   -1.74281830615328    0.03379708857775
H           0.83297438175626   -2.22581723498529    0.52424727403777
N           1.05243062242813   -1.04533604529954   -2.16214857433647
H           1.59371640679726   -1.50764140075000   -2.88313458059654
H           0.19605078733323   -0.57928595007140   -2.53872840346565
H           0.69624227534591   -1.73827783398109   -1.37848885783922
H           1.59358835287526   -0.32372326569688   -1.65953167866931
