    26
        -50.45261345  Gyration_radius:  2.53085867278 Dipole_moment: 5.575
 S           0.44080584812724   -1.99864359297171   -1.02726418826424
O           1.38030228379634   -0.89793974259697   -0.96390077144072
O          -0.01340338535354   -2.36852640895734   -2.31660456585599
O           1.07055957321219   -3.21502552043896   -0.31292577072878
O          -0.78339246226724   -1.63284522966357   -0.15704798272074
H          -0.53273619387016   -1.11119265512417    0.69449453691555
H           1.52270446119483   -2.86110608331141    0.50321522323244
O          -0.87083080546794    2.50845705409539   -0.55308251414518
H          -1.07387708271159    3.31410039242366   -1.02992210695133
O           1.40849048404362    1.34413052275102    0.52006154191301
H           1.55805499016442    0.65000338036280   -0.14589668755708
H           0.73591062253814    1.93293668861602    0.13952698211753
O          -2.04453754228124    1.60969004649026    1.76528987170945
H          -1.71050319769254    1.95686523403412    0.91609462655054
H          -2.01274083856883    2.33575651127687    2.39021123619414
O           2.08558610215164   -1.89786640173269    1.67644259237369
H           2.54109914563610   -1.21426986861702    1.17382086673609
H           1.32778513156365   -1.46482136289573    2.09799133523003
O          -0.13761435387806   -0.26534336004378    1.87908933509822
H          -0.95492899487491    0.25847098339850    2.02228160658875
H           0.49484304518779    0.39570338869066    1.47786571240588
N          -0.90292776353032    0.47134248351993   -2.25058670334172
H          -1.50875027375175   -0.24559201596228   -1.86611578709659
H          -1.11994795260655    0.54514428905604   -3.23771014303981
H          -0.93622830071682    1.75851885295681   -1.21593192197148
H           0.03627747000173    0.09205240469210   -2.17939632394583
