    26
        -50.44530680  Gyration_radius:  2.59827474628 Dipole_moment: 6.994
 S           2.17835681072101   -1.13047643093801    0.71962862425871
O           1.56444912339677   -0.16538705425557   -0.17977516204708
O           3.38039195773587   -0.69836786567706    1.32667025872617
O           1.08654594364648   -1.49877802717770    1.77450068492189
O           2.37272070460544   -2.46173365331743   -0.00225136981068
H           1.46115200674879   -2.91215803806120   -0.10872654745615
H           0.69958221105484   -0.61205861939942    2.06187488990668
O          -2.12073880012252    0.84196876715236    0.71213320553041
H          -2.96585075854720    1.04320599354449    1.11504899106818
O          -0.86412092369589   -1.04135891707840   -0.89208152464838
H           0.02107725867057   -0.67309052423435   -0.70651547510709
H          -1.47500432854832   -0.51897263948345   -0.34943576856768
O           0.22009526747153    0.87792186316410    2.02092001024926
H          -0.68941529988701    0.85673435262476    1.64376290120313
H           0.79610425273214    1.14790557870176    1.29642290940381
O           0.60429246087731    1.30484251463735   -2.30904533102659
H           0.13467194945802    0.55675288995643   -2.68835568988540
H           1.17705721649175    0.92780368074994   -1.62633139740987
O           0.00547846339765   -3.38741170413952   -0.07558450808635
H          -0.19661785744408   -3.37604632953801    0.86430986644644
H          -0.46658264108384   -2.61203758449623   -0.47256441693688
N          -1.37456439830182    2.80264850763269   -0.87407579519279
H          -0.95020505752494    3.58627545726863   -0.39308114840671
H          -0.64240661926820    2.35717372593865   -1.43662090148424
H          -1.89292980648893    1.61102876589004    0.09581677846104
H          -2.06353913606523    3.17361529052700   -1.51664409410302
