    26
        -50.45977487  Gyration_radius:  2.59879004212 Dipole_moment: 1.699
 S          -0.55447505214744   -2.44761171881966   -0.50313367590654
O          -1.82932919954473   -1.75969696714381   -0.33599556253562
O          -0.52933750123572   -3.80103256323932   -0.04926037583052
O          -0.30254926346043   -2.51066369637641   -2.09189988578195
O           0.53201608255579   -1.60677419793369    0.01181406136494
H           0.63702050877102   -0.84726026022341    1.43921123965707
H          -0.35454425623867   -3.44953765953283   -2.23580058054152
O           0.55959819945829   -0.34636833560161    2.28913252884745
H           1.01373867997347   -0.87155237930919    2.94915313282098
O           1.25440834253834    2.17428538272922    1.18174181547434
H           1.15239183074162    1.34498569355458    1.67090424584301
H           1.88991839214907    1.98482413565239    0.46525876434798
O           2.55012328815506    1.58535032002553   -1.15246813649399
H           1.81379408755512    1.03876625776137   -1.47961122420220
H           2.62285521861835    2.33317445242698   -1.74754428848980
O           0.22911823658373    0.22731381658411   -1.79981898947505
H           0.36786628570795   -0.45293685491900   -1.09870589451007
H          -0.07765992810704   -0.27386144836339   -2.55825624927095
O          -0.94200546377126    2.18273016473230   -0.28180598478759
H          -0.61208217459791    1.61043136446219   -0.99807741407069
H          -0.14057785342381    2.37745529663003    0.26955523704168
N          -1.87934874308290    0.30624141768480    1.23530783674003
H          -1.10762241368211    0.14066709225311    1.90094785945437
H          -1.92732037091148   -0.54566211204940    0.59260841921687
H          -2.76224975069670    0.45121491801346    1.71119897345550
H          -1.60374720196231    1.15551787098957    0.61554415766158
