    26
        -50.45946493  Gyration_radius:  2.45912003837 Dipole_moment: 8.707
 S          -1.89771207625492   -0.47487827883716   -1.12892771272431
O          -2.06800061980335    0.56607791205774   -0.11209027618682
O          -3.10329566566498   -1.03938092629307   -1.62590240917185
O          -1.07448050545155    0.17878026741494   -2.30910102517948
O          -0.95355677099374   -1.50200487989496   -0.60309959385082
H           0.44168480426380   -0.93048758420261   -0.99472449142885
H          -1.07712260134453    1.15154653477383   -2.13262949132494
O           1.35396440671680   -0.55156433107252   -1.16926283606614
H           1.37661070082239   -0.42699258025424   -2.12099364798418
O           2.40760908003075   -1.89928813220959    0.95693113802853
H           2.20036447326654   -1.40208632525676    0.14368122787215
H           2.66423256960030   -2.77924833943874    0.67648909329049
O           1.29874209526489    1.85168027746358    0.03619339650891
H           2.19671177797366    2.17826188106259    0.10419012579587
H           1.34584738276759    0.97628922266641   -0.41182819184051
O          -0.55230904298361    1.13799862661098    1.95429018589108
H          -1.26330641409379    1.01617510714684    1.28301291506464
H           0.17032482044212    1.55696700081781    1.45729008877422
O          -1.02578979582888    2.61081554903993   -1.37650089559656
H          -1.64058635308245    2.16655495858045   -0.76387270253452
H          -0.17278202519895    2.62080396444918   -0.91655664931129
N          -0.12180712999471   -1.42270105795206    1.84303660514814
H          -0.57642117296505   -1.53864121840099    0.87877728662477
H          -0.23740841288172   -0.37753653896795    2.06538692250714
H          -0.57557551274168   -2.00638808810949    2.53589677005031
H           0.88406197812917   -1.66075303117297    1.73031417767079
