    26
        -50.45299647  Gyration_radius:  2.69391469057 Dipole_moment: 7.038
 S          -0.35538878922611   -2.80552703921122    0.10294432336069
O           0.80673772682172   -2.77214515787949   -0.79130744117182
O          -0.03778445738738   -2.43826072925212    1.46293203385438
O          -1.44387288823010   -2.02608452526542   -0.46658517286621
O          -0.83806589483202   -4.32050297368768    0.14075809068162
H          -1.02194693590418   -4.52072432471868   -0.77297398621193
H          -2.31603870110710   -0.62683643437881   -0.00169736325226
O          -0.24818859494156    0.14723918617106    1.61825421438411
H          -0.15041426595227   -0.81963955761706    1.79169359120072
O           2.82350287410686    1.62664059909640   -0.42498800038052
H           3.53413915318247    1.43392329829957    0.18848912561973
H           2.16384758358250    2.15011158094993    0.05947420206528
O           0.59311625286637    2.58728589031984    0.94400597891939
H           0.34357730859831    1.72586625778420    1.34436176772940
H           0.32661275054563    3.26020842794936    1.57213871580022
O          -0.85903543359598    1.96999435908842   -1.37362728567707
H          -0.35948898308019    2.30972365244273   -0.60925506180227
H          -1.13474718811103    2.72831346646480   -1.88911435355843
O          -2.50277572360593    0.29058220821314    0.28788614998900
H          -1.18988653404126    0.24605364952335    1.31859325759311
H          -2.20304417162472    0.85221855307401   -0.43959218357875
N           0.82853052123202   -0.19779548236965   -0.83691419416363
H           0.92016266004863   -1.25766348882347   -0.95678970784966
H           0.15964370128086    0.19716011907243   -1.50079794047571
H           0.43393108688816   -0.05407019958702    0.13159704987550
H           1.72687693248771    0.31392867434445   -0.89948579007884
