    26
        -50.47168129  Gyration_radius:  2.41949869643 Dipole_moment: 4.666
 S          -1.19341248433154    1.34807104483755    0.52016623420394
O           0.10653022858683    2.00795550870908    0.49303089030920
O          -1.47180435845793    0.65983286213454   -0.72076611470692
O          -1.34550086212148    0.51400627242500    1.70049564358646
O          -2.28179804195266    2.48598563613483    0.65039773191438
H          -2.21803645584032    2.71702371562807    1.57072809542162
H           0.25529230743360    0.13339664136948    2.04652915050497
O           1.20918643230638   -0.05641459495343    2.15445850313709
H           1.63014974256592    0.80553740025573    2.15613510411957
O          -0.55763328632668   -1.88735461239211   -0.74336693668543
H          -0.86925965458023   -2.28539435636792    0.09157049148040
H          -0.97287248624139   -1.00593881203383   -0.75065839835392
O          -0.34480075932599    0.12281172888879   -3.09586830304354
H          -0.98759289077865    0.43201053887800   -2.43234097444931
H          -0.36922281560939   -0.83764936814798   -3.03422801801489
O           1.95011938730794   -1.28082228920538   -0.13669917032922
H           1.08876419548352   -1.68372219903111   -0.40787835218220
H           1.80483378921641   -0.97932301761023    0.78401790028731
O          -1.24553470522857   -2.21721747855274    1.85892061985313
H          -1.47661089257753   -1.27277445002862    1.87322364069342
H          -0.46919574665784   -2.30073525231202    2.41763269099278
N           1.57397339832686    0.93702270822586   -1.41628962482750
H           1.01392407231996    1.47119971184223   -0.69985574784219
H           0.92863515610729    0.68163665897275   -2.20719140119531
H           2.36779676154881    1.47749437727955   -1.74055914182747
H           1.87406997881484    0.01336163504173   -0.93160450305808
