    26
        -50.44453367  Gyration_radius:  2.55881340945 Dipole_moment: 4.570
 S           0.47641811695922    0.91491498760215   -1.82858208526117
O          -0.69488091448343    1.55293565081632   -1.26464501857373
O           1.68422223946637    1.65263314684051   -1.78919885954758
O           0.66083328236650   -0.44676927567765   -1.09648446307363
O           0.14544288252525    0.47472143005467   -3.26096812143771
H          -0.78550564898616    0.08584917844865   -3.27422998893240
H           1.36201228762213   -0.31403859900295   -0.35626947753383
O           2.31478072699466   -0.09213244333367    0.76286260573357
H           3.19126285388399   -0.40479827733579    0.53303318353230
O          -1.15591999770607   -0.12624394198453    2.29767036062999
H          -1.78269471607421   -0.28400798796258    1.58210733384626
H          -0.69637135077465    0.70568805823799    2.06920593032293
O           0.32039773289124    1.92866626295492    1.25528462360516
H           1.22076461677896    1.61068945763784    1.13079849377388
H          -0.05496373432308    2.04385369343121    0.37111876014836
O          -2.05490647866848   -0.55422524633018   -0.43513880069158
H          -1.29420208906714   -1.14357377473658   -0.38933775412984
H          -1.67298990377098    0.33514022982505   -0.58947651586093
O          -2.27300424803255   -0.40339373483719   -3.10265610630560
H          -2.84872238567372    0.34049155501164   -3.29534583314643
H          -2.37670466120429   -0.59160324925073   -2.14122537081249
N           1.25537576907718   -1.54168364250164    2.63362414741838
H           1.16917375106202   -2.53963064251965    2.48975109111069
H           1.62512871218217   -1.38854201789285    3.56309693329007
H           1.95247258636000   -0.68062176406008    1.52560450362221
H           0.31258057060097   -1.13431908335918    2.60940045829118
