    26
        -50.46715586  Gyration_radius:  2.58353460067 Dipole_moment: 2.486
 S           0.54769005825775    0.82979260865788    1.87517893599726
O          -0.67190082623294    0.72909071458433    1.07812562196765
O           0.93506964178448    2.17204212839254    2.20047678091845
O           0.20358781521813    0.11847039576970    3.25936235653042
O           1.60464781090468    0.02212563687005    1.26714901004433
H           2.06646072146516    1.27963759298311    0.11878394042482
H           0.40525152335805    0.79353264085911    3.89936437572569
O           1.95399646869267    2.13251176655942   -0.33290416317245
H           1.61436000398752    2.70162160070341    0.36874933332368
O           0.89151834114771   -2.14015666472669    0.02352074149039
H           1.59531001569746   -2.78718374467161    0.08279065008826
H           1.19195904418824   -1.35795668152872    0.55389623410188
O          -1.73351999801243   -1.77265215084300    1.04124358539946
H          -0.90663329909684   -2.21637306605467    0.80734217934418
H          -1.47150956854852   -0.86154412154374    1.26458514688068
O           0.82835464751186    1.68249787254816   -2.71105895348372
H           1.54340516266328    1.66144096448124   -3.34831365708122
H           1.22877041265491    1.98035244882195   -1.86231794147268
O          -2.94239634401980   -1.32930138213615   -1.29333110860147
H          -3.73673150414906   -0.81670734598536   -1.13839229408371
H          -2.63105865106644   -1.62673451620529   -0.40290050811255
N          -0.50105185082710   -0.23841873014344   -1.38283558297934
H           0.10030236254733   -1.05725996495118   -1.21131786275753
H          -1.46106246523736   -0.57136876292508   -1.62427171146495
H          -0.57365826492829    0.25877380558597   -0.45664988816458
H          -0.08116125785709    0.41376694490058   -2.07627520081315
