    26
        -50.46641718  Gyration_radius:  2.48288882917 Dipole_moment: 2.480
 S           1.77988937446172   -0.16526461992177    0.78826009645604
O           1.09541289325230   -1.40989044353841    1.08291284672751
O           1.83140723444478    0.10097375749739   -0.64187131833148
O           1.26927904293722    0.97711459641511    1.52433393444095
O           3.27681540021032   -0.37423194899801    1.26652208584350
H           3.67517246631860    0.48000165570712    1.12964943122134
H          -0.10146163792725    0.40677216717727    2.66425948047051
O          -2.24164692801860    0.18426825719320    0.68642464152768
H          -3.10027547864458   -0.22343276506118    0.80586152881599
O          -0.70032893176602    1.92783714481130   -2.72115361634182
H          -0.64680613242249    2.24386181938685   -1.79183921836569
H           0.13490851356443    2.17074332321791   -3.12373103750409
O          -0.69863138802971   -0.35633029206664    2.72214905607453
H          -0.16168920219267   -1.05951466647020    2.31684078871030
H          -1.71696995354029   -0.02251262350795    1.51130043491439
O          -0.49230597099477    2.32599068832803   -0.05501029284062
H          -1.29366465622187    1.92031406706204    0.29637986426492
H           0.23720532090780    1.95286345020797    0.47233170907212
O          -0.02355604316689   -2.94512718298430   -0.83260797498996
H           0.39839276174495   -2.45650535855151   -0.09704420188116
H           0.47240866592404   -3.75880868632606   -0.92662806257309
N          -0.61908785308392   -0.39802029858971   -1.43457303866231
H          -0.82517820509948    0.28207089238652   -2.19628688710682
H           0.37310661224998   -0.19303872916420   -1.12313946509039
H          -1.26815340255341   -0.21828103305023   -0.63775113649481
H          -0.65424250236251   -1.39185316117361   -1.68558966829032
