    26
        -50.45871949  Gyration_radius:  2.51167106194 Dipole_moment: 7.223
 S          -1.29596878048979    0.23059566702323    1.97464178488736
O          -1.31980694595219    1.07543318015531    0.78593386764104
O          -1.93827348605329    0.77376499423852    3.12623020667845
O          -2.16506910753174   -1.07612534772841    1.57906204116492
O           0.05407780098179   -0.28674505006524    2.20615051564215
H           0.73134240214560   -1.14478599925969    1.12730593517670
H          -2.92388074791198   -0.91712716095104    2.13007249103535
O           1.23871298741606   -1.66318837905662    0.42739308000861
H           1.68640177298025   -2.36498301930382    0.90225956113649
O          -1.19422046581563   -2.08240962901779   -0.87022188216155
H          -0.27169919284266   -2.06890466863497   -0.57285315649143
H          -1.71355081601900   -1.91291529811011   -0.07394333626282
O          -1.58916061270409    0.43270705145878   -1.81028334777769
H          -1.59483372007694    0.80924157068374   -0.91097765551896
H          -1.54587892146155   -0.53388766805214   -1.66462334482214
O           0.68909428237147    0.96026375264934   -2.89999270322818
H          -0.23876931170680    0.85807030667268   -2.52154010172509
H           0.73962005262697    0.33519934188303   -3.62466851652421
O           1.04439760268182    2.03971617201826    1.24213401243340
H           1.09823874829090    1.41863249140455    1.98140107714116
H           0.10183600344669    1.95448344490517    0.97459658177262
N           2.10512229149324    0.63043099880468   -0.71036272109004
H           1.90365044648307   -0.33181233405368   -0.36414183594495
H           1.57416917678385    0.78800015469411   -1.62218336574575
H           1.72480091994082    1.30101553632099    0.03424363204638
H           3.09964762085650    0.77532989133245   -0.84563282942802
