    26
        -50.46688928  Gyration_radius:  2.41638837826 Dipole_moment: 4.685
 S          -0.85151234106202    1.55707465427875    0.58656894566687
O          -1.19545432273604    0.58262004267582    1.60799826875018
O           0.52192433690690    1.99844813896621    0.67563230367692
O          -1.21635364058616    1.09543310838289   -0.74963427065392
O          -1.75924644168062    2.82555506556351    0.84545063395401
H          -1.37940718902134    3.15428956174861    1.65213776625805
H          -0.29543295188093    0.26697752175391   -1.78880309330029
O           0.22616128637922   -0.35099044617847   -2.36136398268938
H          -0.07452495447467   -0.19835116393472   -3.25857572182135
O           0.61323691176543   -1.36213044730162    1.67375626265591
H           1.46988359451109   -0.86691922117690    1.63097230489516
H          -0.06180589261552   -0.66500824311770    1.81460681247634
O          -2.65113475101484   -0.99098773692715   -0.04434554824876
H          -2.58196538804114   -0.79427906347578    0.89891767203264
H          -2.30857934107388   -0.16828651029124   -0.45401107035931
O           2.37385895022489    1.09778984377013   -1.20490290446840
H           1.74694134155282    1.61568814036079   -0.67548862451919
H           1.83132883592856    0.52713223511866   -1.76255773656330
O           2.60981647047385    0.34026736171620    1.42692146592582
H           2.93181505429439    0.39081431016282    0.51179624623511
H           1.98139247689704    1.07692733309322    1.47835005839433
N          -0.37823929944982   -2.25976240052903   -0.52113761880003
H           0.15070932404343   -1.95922524132405    0.38819175344877
H          -1.37614601542078   -1.92820199089612   -0.37056591102073
H          -0.00166707055985   -1.72479781928762   -1.32511488741933
H          -0.32559901335146   -3.26007703315562   -0.67479913453165
