    26
        -50.47296428  Gyration_radius:  2.41770881912 Dipole_moment: 3.146
 S           0.31079944968181   -1.03044427867390    1.48604863549886
O          -1.09171830583960   -0.70683894119894    1.52605105611918
O           0.72481370966858   -1.66081067376175    0.23804736555948
O           1.16003406922866    0.11828150720069    1.79332435734408
O           0.57809713051655   -2.09317995102313    2.62060774430574
H           1.49987130308537   -2.28001094123664    2.48191711361402
H           0.11122259364847    1.39015069188878    1.62987554306512
O          -0.61141344934324    2.02489181054787    1.42479831710217
H          -1.38309827514937    1.63004947145090    1.84150735069838
O           1.25944953304966    0.16189957778544   -1.62791074698448
H           1.96239758279977    0.69468509688094   -1.20911956308380
H           1.12941415969668   -0.58500564103033   -1.00590697252080
O          -0.89734390824572   -2.41829747511520   -1.75896820768661
H          -0.31750776669193   -2.30026973497063   -0.98142200385758
H          -0.35933419191686   -2.18867281101224   -2.51949140346302
O           2.77692297673337    1.48935861201765    0.16078024693862
H           2.71251482085827    2.39578544538832    0.46578090930417
H           2.30264167207529    0.95007949094394    0.82445130105369
O          -2.56151829859016   -0.59208019029874   -0.70748043268744
H          -2.16672483016437   -1.33721127263219   -1.20707974524844
H          -2.22330870671812   -0.71342587475586    0.20183801454031
N          -0.98934858568080    1.43728312326205   -1.15679801880859
H          -0.07413067912688    0.97963667104343   -1.46050104219034
H          -1.27943670971625    2.16277213041932   -1.80210599327734
H          -1.72498004296939    0.65500046278360   -1.07440938588846
H          -0.84831524088368    1.81637369409475   -0.18383442944727
