    26
        -50.46740375  Gyration_radius:  2.44296147444 Dipole_moment: 4.835
 S          -0.17034942889110    2.03462014205965   -0.02357596045238
O          -0.12904101918827    1.47403600317090    1.31792566021948
O           0.99532641922117    1.65915821652702   -0.80901934436135
O          -1.42536624112431    1.76378975184165   -0.69809249020874
O          -0.07502340929160    3.60749243494369    0.13591432531194
H          -0.89911315479499    3.83373957348038    0.55505950669970
H          -1.02911522904869    0.75364790482686   -1.95966072147728
O          -0.53002136534155    0.20791671207909   -2.60625370120611
H           0.28415147609037    0.70563945582255   -2.72958215062747
O           1.09025369029416   -0.73774163674658    2.31566674860376
H           0.37777964684245   -1.39514664633286    2.10373504289095
H           0.65480956858411    0.13038787733369    2.24642926942860
O          -2.36617215920409   -0.00015142233407    1.20247822346974
H          -2.66584658586636    0.33692135431227    0.35263060510351
H          -1.60325172862909    0.56596496381749    1.41846540092522
O           0.20818141185357   -2.01938733529011   -1.44249352030436
H           0.06994455205843   -2.74921867319808   -2.04751355458053
H          -0.14917500975280   -1.20684522760252   -1.89600721311814
O          -0.80718560037909   -2.20911593431190    1.21451722238314
H          -1.52216544255626   -1.54244784036769    1.26564514002625
H          -0.55002839111872   -2.24766920968957    0.28263559826286
N           2.08033710273576   -0.60450768365890   -0.05288789050585
H           1.73676480666909    0.35069242263561   -0.35402065979044
H           1.78827382903403   -0.71039420748208    0.99844475994020
H           1.55516427145127   -1.30661210957681   -0.60368860051384
H           3.08086798035574   -0.69476890625947   -0.18675169612254
