    26
        -50.46899343  Gyration_radius:  2.55750873165 Dipole_moment: 2.665
 S           1.42888912840926   -0.59703102561306    1.66915473825431
O           2.11023484585342   -0.78850858490413    0.39181175056721
O           0.66481282168928    0.63280461287697    1.70833717728367
O           0.66461238824799   -1.77068787827432    2.04850124330665
O           2.56809062581741   -0.43732901119646    2.75773358517239
H           2.92027947415845   -1.31977526178028    2.80226676347112
H          -1.82259749995989   -0.40122855982454    0.49716398186482
O          -1.70747770092305    0.56505451453217    0.53833195118741
H          -0.93318627915965    0.69125153989579    1.12789232295096
O           1.99067011839681    1.73520415732469   -0.35193483494835
H           1.56233198103111    1.91302846038297    0.49747869273575
H           2.30309258238513    0.81594586330486   -0.23184236376684
O          -1.30895533320768   -2.13248690376518    0.42253096596369
H          -0.56292778388948   -2.03430034668310    1.07290464470362
H          -1.81337908693803   -2.89385025759918    0.71341683803648
O           0.52538429735146   -1.63820986728542   -1.59160050002249
H           1.23482256974016   -1.46023980959467   -0.94068452788125
H          -0.20341010307128   -2.00468646110230   -1.06488441707732
O          -2.69399677619440    2.17815081935992   -1.61780356182034
H          -2.64601921038219    1.74666266469139   -0.75383525598763
H          -3.45491139134957    2.75886063595237   -1.59051608119891
N          -0.16629213495604    0.90241120402068   -1.65431329180670
H           0.09213747032057   -0.10005760586205   -1.87701730067069
H          -0.61630184006002    1.39316663693470   -2.42153430905664
H          -0.83979825187518    0.85710650279764   -0.84813662323084
H           0.70389509846532    1.38874396143820   -1.30342159800993
