    26
        -50.46404616  Gyration_radius:  2.46029220725 Dipole_moment: 6.113
 S           0.04567046938956    0.23321998084082   -1.24367498027974
O          -0.47770166780228    0.21894357282433   -2.58527651274314
O          -0.60557445701676   -1.00728936819171   -0.54213462657516
O           1.48358530254424    0.10572513646002   -1.13816225946261
O          -0.44226346092438    1.40012885372308   -0.47145505250438
O          -2.86173492690289   -0.67301292434966   -2.20418459394856
H          -2.69899156398080   -1.61334723639250   -2.09710193025812
H          -1.98363768882127   -0.29902128663806   -2.49444911701943
O           3.12430277230657    1.25132263783866    0.76090741286194
H           3.51700636151072    0.41291109549493    1.02176261664190
H           2.63526712493546    1.05767073701810   -0.05596599678162
O           2.61364173448713   -1.67964875887917    0.47178239236986
H           2.24227065230757   -1.06425347702403   -0.19812747909561
H           2.79721065850561   -2.49927969478527    0.01176940849556
O           0.70988359427396    1.48783147991935    1.95724562305335
H           0.27599450149935    1.66428642987843    1.10348785512765
H           1.66394989681232    1.56554558864344    1.75488131940404
O           0.31707440992957   -1.09175234014058    1.79546355953896
H           1.20814641889114   -1.43443733870573    1.59586104428999
H           0.45110541063842   -0.12810247038129    2.01851646451073
H          -0.24118275780279   -1.07675603369992    0.42106908816172
N          -2.79074877360418    0.63845856897293    0.05025384413754
H          -2.96363571703763    0.05575283315952   -0.83888290889437
H          -3.49125650867881    1.36353794633686    0.17050261428430
H          -2.73883999041152    0.03944286348176    0.86999459858651
H          -1.78954179505037    1.07212320460107   -0.13408239390374
