    26
        -50.42881806  Gyration_radius:  2.44195862853 Dipole_moment: 7.953
 S          -1.62540392428560   -1.96721966704647   -0.62598553129841
O          -2.09842553814717   -2.22508749500224    0.69769085652978
O          -2.04749121684051   -2.77461547918601   -1.71074132030332
O          -1.88758157522928   -0.46979960264576   -0.97491277623144
O          -0.05227442197874   -1.98356415891745   -0.60782134261134
H           0.29837028750782   -1.79674592568450    0.36300066579335
H          -2.00462944603427   -0.02271798183303   -0.05217454137883
O           0.51412703465787    1.11573330780317    1.37578437831506
H           0.67643539673898    1.62772926902378    2.16563923751185
O           2.63097176763342    0.89222949743456   -0.01237817431624
H           1.81796802319719    1.01485942955107    0.60190301911745
H           3.03418606911793    1.75741731211077   -0.08875433550429
O           0.88048200252934   -1.36154296151599    1.62502032950527
H           0.73642474819386   -0.33932245864305    1.59533299119163
H           1.82886628830268   -1.49460867016076    1.56593266648750
O          -0.47848292275552    2.19142178464059   -0.76253046315951
H          -0.11442367109993    1.89241777109002    0.12411302548561
H          -1.42877980810413    2.07358055935144   -0.70462387551238
O          -1.97811333213147    0.40435480617965    1.36825823233785
H          -2.05595590122527   -0.50389204679120    1.69410111229605
H          -1.01826968654984    0.68041775484053    1.48298796513561
N           0.87933807090223    0.24602757908468   -1.86060986819016
H           0.47293220302390   -0.66052340839082   -1.55499609018328
H           1.08082162284145    0.23977525291549   -2.85392128439626
H           0.19896836335766    1.02981332568234   -1.58791932612945
H           1.73993955772099    0.43386221591722   -1.26239555105787
