    26
        -50.46514937  Gyration_radius:  2.55000605595 Dipole_moment: 2.705
 S          -1.80505676200771   -0.21961361185603    1.07294168026966
O          -1.45722643153365    0.06481200776955   -0.33776279713699
O          -2.35354028922327   -1.53650937746744    1.22568332009002
O          -0.66875474065582    0.05960645374737    1.93022864532355
O          -2.91966671186411    0.83326737120062    1.44490593637597
H          -2.44926847693093    1.67079774546982    1.40183924967538
H           0.90103431278067    0.05692449421702    1.70666512214956
O           1.85826619616638   -0.03551056092358    1.45519245745969
H           2.31418609697430   -0.31369829973704    2.25035497448406
O           1.93171487004221    0.38470216276833   -2.59512684097829
H           1.50169927386547    0.78244640178593   -3.35271861867616
H           1.90975254629347    1.06181417127706   -1.87799198598273
O          -0.66940255182314   -3.27701734181045    0.08015812141600
H          -1.14183957902252   -4.10633710023897   -0.00565181343592
H          -1.29247211493088   -2.66609582492755    0.52961256455291
O           1.61948213058494    2.00238653183190   -0.47677479970844
H           0.73265711656089    2.32830636916206   -0.24946117096979
H           1.88413962828499    1.44315301702628    0.26698640675574
O          -1.08190877317369    2.58073524132758    0.05929015677516
H          -1.21446612181908    1.63430018752596   -0.18621151022500
H          -1.51727815036274    3.10328559927252   -0.61725119788141
N           0.80494121695387   -1.19418312866038   -0.76282149889018
H           1.27703626659174   -0.87014404012470   -1.63224189769787
H           0.55194559634988   -2.18999134032695   -0.72120450603394
H           1.38957130936710   -0.93269783257975    0.05420396658877
H          -0.10554583745956   -0.66473929574328   -0.66284395429989
