    26
        -50.46865528  Gyration_radius:  2.56766034501 Dipole_moment: 5.916
 S          -0.21854530830920   -1.07000643466720    0.48563019985972
O          -0.55499655424343   -2.08085678940665    1.60697361610863
O          -1.15846324245576   -1.24867518806142   -0.60675175561175
O          -0.36228044512060    0.28125190728881    1.07083746160070
O           1.16563131976418   -1.28631669858799    0.09792718186885
O           3.29409914361407    0.21194229526443    0.40999165505209
H           2.56355150903450   -0.45024718287471    0.42868360960700
H           3.92530790764149   -0.11009973828848   -0.23620459116723
O          -2.79239513800774    0.58893677202384    2.09058174231096
H          -1.89606110338907    0.55791769829499    1.69256090511085
H          -2.66090116260456    0.65301476488885    3.03827233272375
O           0.66379534521141    1.72598444426532   -2.57345987822492
H           0.71775892345668    0.73322344513840   -2.65716024941318
H          -0.22654932161656    1.95813017884840   -2.84295042164190
O           0.63481522860146   -0.89048680308006   -2.50499870037296
H           1.23719262185955   -1.17116496476121   -1.80096932761259
H          -0.23188396577714   -1.06406893273307   -2.09088444088318
O          -3.07258715680826   -1.92101111644972    1.14007793435929
H          -3.24744101928733   -1.03322021234830    1.51433300834052
H          -2.76415383806054   -1.75829627877576    0.23445533475014
H          -1.55367659800791   -2.15803132880273    1.56704989563454
N           1.31391975691083    1.93886427646470   -0.01203893482268
H           1.33057488489048    2.86725750421645    0.39550459427153
H           0.58972346147895    1.31852385842386    0.47275972562281
H           1.07388181620201    1.96454296103387   -1.04224957879130
H           2.22968292498456    1.44289154268243    0.12202867128956
