    26
        -50.46201418  Gyration_radius:  2.69494883217 Dipole_moment: 2.935
 S           1.67715159978982    0.09069472998940    2.14956660297247
O           0.43064994028739    0.70778402498672    2.60490414091979
O           1.47103923458742   -1.19231066681170    1.52547372495782
O           2.44618292922407    1.02063053758363    1.33346107691782
O           2.53769293244937   -0.16793706404895    3.45482802037453
H           2.67631320499796    0.72043670183910    3.76627325842093
H           1.77708592698031    1.25223662506895   -0.06065447945099
O           1.26629349496106    1.45773423982357   -0.89558994263007
H           1.78854553000158    2.10568166732815   -1.37132739431304
O          -2.03428478574887   -0.05248164207744   -2.79370025716581
H          -2.37073538277944   -0.56600425910341   -3.52833976124094
H          -1.07864878444475   -0.29816030968920   -2.70095032399049
O          -2.49030360564686   -0.61258977804328   -0.22118588946781
H          -2.49569331346380   -0.43187010789987   -1.18799887286034
H          -1.84114108539505   -1.32926323226503   -0.09420679684089
O           0.44006752508034   -0.81872727324795   -2.25108881381632
H           0.86152759583161   -0.05070588013919   -1.83293018094801
H           0.26100978455124   -1.44066679329663   -1.52522536693790
O          -0.32289357151727   -2.25198888504664   -0.01243779566599
H           0.33373633015214   -1.83150640238717    0.59745246792363
H          -0.25016447311587   -3.19443136627507    0.14442919495267
N          -1.02926997207048    1.39533595591659    0.57517621660083
H          -0.30905670668537    1.53384949360749   -0.15690088372764
H          -0.50075797958212    1.11537505382312    1.46123459082236
H          -1.55429113611251    2.24871184782211    0.73178658011782
H          -1.69005521230636    0.59017279261729    0.28795088410351
