    26
        -50.44088476  Gyration_radius:  2.47709924114 Dipole_moment: 9.452
 S           0.27315926508463   -2.27704556904553    1.06102737350689
O          -0.08654855418180   -1.76421632004274   -0.23886388440049
O           0.63297071633495   -3.64010377928872    1.15109630886854
O           1.40719987897628   -1.36565344983975    1.62614933955794
O          -0.88129363023918   -1.98110177554360    2.04806297335093
H          -1.08319137292415   -1.01290672265422    1.96844289804790
H           1.77226707145267   -0.75534987584330    0.92728371659806
O           0.29079115324572    1.98522766977983    0.31212184908305
H           0.31480269445285    2.94022013548495    0.37236553542592
O           2.38414261234689    0.43132224391251    0.02913941373058
H           3.12602072653987    0.80720198441092    0.50670496610420
H           1.62528142483518    1.06781332407167    0.11486530149979
O          -1.30977533234252    0.59020284279079    1.88454543458246
H          -0.69532115998492    1.09768129574342    1.29191579786255
H          -1.19832603717461    0.94461101363614    2.76848058002714
O           1.20645356461854   -0.60176672568723   -2.37868837081089
H           0.70061023909897   -1.19829430389362   -1.80615617109495
H           1.92020218157990   -0.27934139326132   -1.81837571128483
O          -2.47922525142970   -0.46998205771947   -0.57308634408540
H          -1.71005079371956   -1.06373441787032   -0.55054247148587
H          -2.55185681305110   -0.10999662202426    0.31561640702973
N          -0.76624239076971    1.35260257078716   -1.87860925612997
H          -0.18241106253802    1.74890394059913   -0.65894902992667
H          -1.57317427993607    0.78040147378214   -1.61325352528198
H          -1.05342654788417    2.05126701815095   -2.54996411034592
H          -0.08305830241908    0.72203747951268   -2.31132903040772
