    26
        -50.46967142  Gyration_radius:  2.42634649755 Dipole_moment: 1.718
 S          -1.09260042323181    0.04399615339907    1.71325313671351
O          -2.17135942282395    0.65603125893294    0.95573348472331
O          -0.83026338904197   -1.32567379590933    1.34665222338772
O           0.11413436407370    0.87226526410259    1.67898645029646
O          -1.57174884594946    0.02823189660918    3.22241577620815
H          -1.98550934861705    0.88043870366543    3.31172948024823
H          -0.09070795617377    1.63537664006629    0.21072041295590
O          -0.36033534314785    1.91781629802100   -0.68960972838520
H          -1.31530420736268    2.01130144026179   -0.61778570360493
O           2.53349547290000    0.12362286926199    0.93261712821014
H           3.14693703990098    0.24267627119655    1.65863214677015
H           1.65203115675931    0.41206312328196    1.26199066731808
O           1.20386886799781   -1.94520188275407   -0.26023178232191
H           0.48771459477629   -1.89181118837946    0.40518420748318
H           1.91281366237942   -1.38333217914209    0.09419515709296
O           2.18418300948603    1.09215457845843   -1.71403700164653
H           2.49828968792300    0.75711625846530   -0.86302014907665
H           1.67336733480042    1.87977463819576   -1.50888981237628
O          -2.47887720848665   -1.20039719063628   -0.88995092942076
H          -2.22151362686768   -1.95318599301362   -0.34766568046571
H          -2.52151527619883   -0.45953044344214   -0.24590805516854
N          -0.15554155656727   -0.47894867164726   -1.96179987802638
H          -1.13363845770411   -0.80863248810436   -1.74283070963016
H           0.07615266634565   -0.52092019830436   -2.94815455181278
H          -0.06691695969529    0.50457996156681   -1.61172187796093
H           0.51284417452726   -1.08981130415227   -1.39050442150407
