    26
        -50.45954425  Gyration_radius:  2.45983655961 Dipole_moment: 8.168
 S           1.11079455273694   -1.71286601360053   -0.03332726711120
O           1.59812252770025   -0.58858649664871   -0.85627981870931
O           2.15077079057666   -2.47565362268456    0.56352411415697
O           0.11747185278757   -1.19288626029532    0.92764990232006
O           0.29071569112248   -2.62821000732474   -1.01149666836839
H          -0.48543764317780   -2.08713449772754   -1.24178222502052
H          -0.23912524451557    0.13018832012638    1.71394151881003
O          -0.47997856860906    0.97625962436388    2.18150042841698
H           0.10549030104343    1.01235992512050    2.93988281417777
O          -0.28214565510479    0.85385768875452   -1.89279868014777
H          -1.05320541566062    0.26994813618425   -1.86568835094148
H           0.47825635649468    0.27092366179902   -1.62977382547985
O          -2.01211930895411   -1.27663716644128   -1.53005474875212
H          -2.54728473319858   -1.89301946326497   -2.03249127868352
H          -2.31876390455406   -1.33738595188936   -0.58824053288360
O           2.73657252810077    1.40860273196654    0.31506073589347
H           3.56520183629154    1.55465278524582   -0.14340286655312
H           2.37351297618939    0.56109574541271   -0.06145061164096
O          -2.46868231879696   -1.49272040994594    1.04643753855467
H          -1.48639428683538   -1.55088418485592    1.11418592176993
H          -2.71032656335604   -0.72349316139832    1.56685951562188
N           0.29950427259533    2.42317412307605    0.10383560097766
H          -0.11240362078914    1.98125159961339    0.96940564708192
H          -0.05796999104432    1.87427611955511   -0.74690153749997
H           0.09431686343016    3.41293001706340    0.03713747822799
H           1.33310673548447    2.22995675781596    0.15426719584365
