    26
        -50.46427911  Gyration_radius:  2.45575917245 Dipole_moment: 3.062
 S           1.64204102639296   -1.10944365590679    0.33521112179759
O           2.24969970007351   -0.33490005981359   -0.73279659736693
O           1.67909474729593   -2.53039425505841    0.14324167342103
O           2.47448712743876   -0.79051971606601    1.66525178014011
O           0.30749025943922   -0.59282752336618    0.64822540472040
H           0.34776506406672    0.87444014176062   -0.13413253138287
H           3.22119206584619   -1.37912262679692    1.61355831763283
O           0.32664143464046    1.65344516784983   -0.73726211731505
H           1.22077529578983    1.67933995393559   -1.09125040451782
O           0.13907306522812    0.93609564990187    2.85549718578077
H           0.24685231148154    0.28379880355622    2.13999278259285
H           0.99657280842609    1.00125606039725    3.27744369312296
O          -1.78123080356579    2.06294534603966    1.20806320479118
H          -1.13337196062945    2.31592550407804    0.54017097706627
H          -1.25469712963728    1.81463911947517    1.98527329187934
O           0.58941524905069   -1.72925949446054   -2.23237795382898
H           0.65264399095361   -2.48764128985897   -1.63785559435193
H           1.31388566600738   -1.15355748010520   -1.91443864135977
O          -2.39356786908252   -0.39420411761370    0.37038603917736
H          -2.38424353560067    0.52421124763428    0.73732765145083
H          -1.56589839051970   -0.77859207367990    0.69836370810833
N          -1.40053126942530    0.03021818302651   -1.98325216717597
H          -0.72809269959132   -0.76112879780711   -2.16614161653471
H          -2.00382228808584    0.20731540390507   -2.77807337283377
H          -1.95330744293124   -0.19758066349976   -1.07620989030538
H          -0.80886644307253    0.85554117245472   -1.73421596472215
