    26
        -50.45789870  Gyration_radius:  2.60456830646 Dipole_moment: 4.930
 S           2.34671495888239   -1.21417360852652   -0.17700150264209
O           3.33965020674685   -0.17130546543580   -0.25431368976988
O           1.72535122027045   -1.36474765244537    1.11907995111064
O           1.32498460650175   -1.06785924115876   -1.22959800426380
O           3.09232911165649   -2.58699867332423   -0.48596305487870
H           3.75036318094877   -2.34215078509554   -1.13027786696214
H           1.12180506288244    0.39592087735754   -0.69783812592827
O           1.07940715453567    1.30329158857343   -0.28914443367414
H           2.01506157229875    1.46906653146416   -0.11799496242732
O          -1.21734876081167    1.68280078802387   -1.72458715448672
H          -0.35088903798244    1.70966760293635   -1.27891003196317
H          -1.05713180891281    1.87415978447904   -2.64960880340960
O          -0.82397591293453   -1.70000874966304    1.54198781293444
H           0.15248069434694   -1.80207714314846    1.44452968086233
H          -1.16880246534156   -1.70738934528302    0.62576502779559
O          -1.34319540987352   -1.11574308793033   -1.04657528095721
H          -1.48518741350342   -0.21077137010814   -1.35530949874855
H          -0.39495358279101   -1.27932367562989   -1.21757842875189
O          -2.91548840037830    1.51878062057608    0.41717634189915
H          -2.48051405177947    1.75213482981780   -0.41994198353406
H          -3.35671359551755    0.67947936252002    0.26170014354736
N          -0.66910925160721    0.86140828443659    1.75493928302679
H          -1.57015611085023    1.23815900395607    1.37935177666345
H          -0.75841487319792   -0.23229591113776    1.78569159734069
H           0.09445282245400    1.07313703050013    1.07408915974567
H          -0.45071988605806    1.23683840427433    2.67033206742891
