    26
        -50.46908710  Gyration_radius:  2.36583172145 Dipole_moment: 4.960
 S          -0.41410306238572   -0.21207621496433    1.42868748338362
O          -1.91673208519414   -0.30794655750001    1.70860903313597
O           0.26738375594693    0.04232308320045    2.68976711421800
O           0.03611792103421   -1.46398858440712    0.81387307929231
O          -0.17634112535056    0.90402128179000    0.50141942929394
O          -1.87891424397052    1.94467841582706   -1.29183769266639
H          -1.32848123518930    1.92038920270051   -2.07858276410012
H          -1.28541425069572    1.73924130861401   -0.54458128498721
O           2.48687666213541   -0.86392435809703   -0.01418065535603
H           2.16196670144223   -0.48070352630595   -0.86293613991425
H           1.69181237008711   -1.30868380222980    0.35120856042644
O          -0.88149708599966   -1.86335364063101   -1.58234524669615
H          -0.95956955521537   -2.80301135199513   -1.75331404494990
H          -0.51987072308342   -1.77851786373590   -0.66280732032755
O           0.92688748310450    0.27550932596940   -1.84541268061660
H           0.37183483286321   -0.46083908647865   -2.13657445060878
H           0.49964065722886    0.59381506862600   -1.02376219845995
O          -2.97548973871077   -0.41745673318555   -0.60440896474609
H          -2.81737821756277    0.49409636026214   -0.92885743646919
H          -2.35883918513699   -0.98572541273679   -1.10435884757615
H          -2.41373799809954   -0.37187840398746    0.81869480404793
N           2.33176781088313    1.11164823853431    1.63715466105542
H           2.55193301775058    0.30646020751937    0.92787948677976
H           1.96619090979908    1.91060820717202    1.12390026823686
H           1.50516482855374    0.71089633865659    2.22010001812068
H           3.12879153561854    1.36441850738724    2.21266580960804
