    26
        -50.46853825  Gyration_radius:  2.55779290499 Dipole_moment: 1.259
 S          -0.85252916318094   -1.49949503556649   -1.13758642184879
O           0.11806649930142   -0.47759213348017   -1.52799386258845
O          -2.20541061013184   -0.99254407114695   -1.16932655368867
O          -0.76278479292487   -2.64203173653938   -2.22973076384603
O          -0.48661034382411   -2.12021035144151    0.12207923342038
H           1.05190797133999   -1.84957610917402    0.73421723297393
H          -1.23611618154162   -2.25002725921154   -2.95582463825716
O           1.88509932713300   -1.60474087504727    1.19604678003730
H           2.42828949926788   -2.39408239647721    1.19656645154785
O           2.56741734136437    0.37288886907603   -0.58891609179773
H           2.50385529729643   -0.26353260159188    0.14564756136407
H           1.84605892336657    0.11480448556469   -1.18273550069961
O          -3.05379672862977    1.45570722230451   -0.56675656926862
H          -2.82228470049250    0.55623079075910   -0.88566041442262
H          -3.84202423341692    1.34758362920259   -0.03234025290045
O          -0.57758230136396   -0.45150751279894    2.22540656013170
H           0.32907200749155   -0.63965019616240    2.49341367464959
H          -0.78888427805888   -1.15415234596599    1.58089256072867
O           1.80900018673478    2.75077254011608    0.32757669844644
H           2.38648972199095    3.00301449828254    1.04851291770637
H           2.20817184079189    1.94175089235971   -0.07966376140103
N          -0.50328658054668    1.38591538990249    0.26712190445530
H          -0.55429093322801    0.81253597979621    1.14383508846563
H          -0.22937590583154    0.73281013239927   -0.50640131577554
H          -1.44852307925859    1.74459235064616    0.03315863323230
H           0.23007120632340    2.12053581418304    0.34846085930582
