    26
        -50.46905720  Gyration_radius:  2.42062719065 Dipole_moment: 7.407
 S          -0.52557137532985    1.26881837951568    0.60492309579829
O          -1.09875179479548    0.21044036956563   -0.22526557714241
O          -0.24420537469480    2.47203038996305   -0.12629712430118
O          -1.54306336163023    1.58428341763331    1.73156679023884
O           0.69598860101260    0.74710515564723    1.26788021568843
H           0.56732947210999   -0.74754419648791    1.77627763098629
H          -1.84903087845846    0.69758502485931    2.03590249225087
O           0.44813945023986   -1.68932562208376    2.08068742332231
H           1.03864140308479   -1.80299178951107    2.82717075552871
O          -2.07683967383835   -0.83841575451503    2.61921104834370
H          -2.16901731390629   -0.86085894161127    3.57409364981824
H          -1.25233958650249   -1.31591004416283    2.39560475411817
O           0.30896715463086   -1.95602491898670   -0.73905898655967
H           0.41695992089166   -2.33472355803651    0.14224746392490
H          -0.35951653465499   -1.24637436385447   -0.60216761042581
O           0.89786907092505    1.83523826190840   -2.43832489041769
H           0.48629187661997    2.30326201452116   -1.68027862314805
H           0.14958069998753    1.35974177211786   -2.85695505818726
O          -1.22149360562841    0.25534538129688   -2.89472352410684
H          -1.14578714070685   -0.68029889969955   -3.09236417976650
H          -1.35501890393248    0.31269531913635   -1.92754247950823
N           2.00487854279848    0.07359450026152   -0.90326026360619
H           1.66925792774885    0.44348447381612    0.02492963297136
H           3.01338463405399   -0.02593351722045   -0.93525927573644
H           1.50177699029331   -0.84821217033083   -1.01410488724878
H           1.64156981966379    0.78298931626696   -1.64489247282227
