    26
        -50.46060878  Gyration_radius:  2.58748971517 Dipole_moment: 5.777
 S          -0.33570904593308   -0.59798319562136    0.11403255355114
O          -1.69659966744500   -0.78798743528769   -0.42672722020214
O          -0.14082152801213    0.81538155795888    0.41570488110552
O          -0.06065611007364   -1.46814890536380    1.23604258490736
O           0.62592092874370   -0.96059652377402   -1.05413192942610
O          -1.11639979928710    0.30357726533144   -2.82453314729170
H          -1.36869367911222   -0.23035575829572   -2.04792700341217
H          -0.24378987861331   -0.01774225944555   -3.06452428852394
O           1.51222505256756    0.26785440890213    2.49242122043031
H           1.16232601173474    0.93713471945448    1.88983639270875
H           0.93055030465854   -0.49272378469205    2.31149149498485
O           3.71710610508628   -0.80696765320394    1.43875261020353
H           4.29135408481749   -1.08849094982921    2.15246031140071
H           2.97432741051774   -0.31382545145651    1.86140328868213
O          -1.09796995213903    2.51583061314757   -1.33199226944397
H          -1.04884811591360    1.92213479363062   -2.11348691311035
H          -2.35065077615647    2.01232863308483   -0.72362149354656
H          -0.53043395194048    2.06346183617151   -0.66574626938227
O           2.14088218742442   -2.57487987877304    0.18484681797255
H           2.84481224875820   -1.99562922520654    0.55840229184197
H           1.42960382487366   -2.58161389158154    0.84404937262894
H           1.29589529629745   -1.62551156128221   -0.68803858862337
N          -3.10111121584126    1.35605331698434   -0.24296347735077
H          -2.59224997390041    0.39820572190920   -0.25116253083774
H          -3.96227138978921    1.30485228016627   -0.77765389911488
H          -3.27879836133066    1.64564133706915    0.71306519984173
