    26
        -50.47297957  Gyration_radius:  2.5039657058 Dipole_moment: 2.756
 S          -0.77294700241515   -0.75753587216940    0.19322284264201
O          -0.73739662519075   -0.59710970005697   -1.26530758797396
O           0.44368259279330   -1.39470215449943    0.67343256887831
O          -0.99479818198822    0.53138887821424    0.84732217147725
O          -1.93494558184681   -1.70204309809264    0.56254649472551
H          -2.79408879000444   -1.26286762257451    0.30559417857914
H           0.35529894792348    1.56008368575320    0.72842091163064
O           1.26350118569556    1.89529197055678    0.56463470905076
H           1.80970890094744    1.41013461567481    1.21169736502845
O          -4.09262923218025   -0.39052968458123   -0.03661811652649
H          -4.45166127282802   -0.00788711436240    0.76673203160481
H          -3.68390005990778    0.35591306767701   -0.54420823799930
O           2.24206523543259   -0.10338257987096    2.11678142525538
H           2.04266582531760   -0.12733902482091    3.05339727270614
H           1.52539566039840   -0.61231247735269    1.67293790953728
O           2.91420076374587   -1.55054748314243   -0.37461097283141
H           2.02860617222152   -1.81194821511659   -0.05705796732899
H           3.35395469122607   -1.19770337003770    0.40662925441573
O          -2.51967778002911    1.41792543059259   -1.12915410581769
H          -2.03202811161705    0.79509415536018   -1.68663978714818
H          -2.00502740681114    1.41061985576493   -0.30047710456365
N           1.62690219182288    0.44144267992432   -1.57572279365885
H           2.29351456800375   -0.31397176205604   -1.26451478077434
H           0.66124704757478   -0.00355605207547   -1.60394398406489
H           1.57295347193500    1.17348514250266   -0.79446576995603
H           1.88540277948136    0.84205671853605   -2.47062791678772
