    26
        -50.46650656  Gyration_radius:  2.49065901557 Dipole_moment: 2.829
 S           1.18882508153232   -1.50833954562429    0.50138230827966
O           0.52958987703797   -1.76415371173649   -0.76929760187189
O           2.05983741883404   -0.34830202236227    0.45833860354036
O           0.23684375166227   -1.45299034118324    1.59659775985081
O           2.12613107964128   -2.76203125780365    0.75160014897132
H           1.68519232275578   -3.45347963005435    0.26805832119676
H          -1.24826013062240   -1.07088933220458    1.02511560129748
O          -2.15211557787653   -0.77977879700927    0.75158154352124
H          -2.75456856904978   -1.41672895679366    1.13887928382033
O          -1.00399683582862    1.75697195582123    0.72829548899555
H          -0.27953656943986    1.68069675969100    1.39348039229349
H          -1.62784244270000    1.04944200765127    0.94350980323289
O           0.95913344514574    1.09820409338579    2.40432523665676
H           1.53447222299186    0.68506710705146    1.73302063369334
H           0.55672063510870    0.34390383546333    2.84700523105082
O           2.46515469191115    1.29570529248856   -1.62642296653410
H           2.45494875467697    0.63781027242538   -0.90145347510202
H           2.91134641205638    2.06690151915339   -1.27265036975790
O          -2.79303281681526    0.16586606215544   -1.81767091151185
H          -2.58774737808052   -0.28252839774445   -0.97911385201744
H          -3.51361367960936    0.76874182750285   -1.62920966529871
N          -0.14820186631460    0.67213818314490   -1.53420402458594
H          -0.95274896381359    0.67044618786984   -2.17033161860445
H           0.71935832999495    1.09477462391870   -1.90560250388720
H          -0.44228436802758    1.17956555302692   -0.64570051674620
H           0.07639517491989   -0.32701328811600   -1.28953286050786
