    26
        -50.46779931  Gyration_radius:  2.57169504886 Dipole_moment: 6.445
 S           0.50098265893642   -0.22745526989074   -1.11762336689868
O           0.95951903162316   -1.24533051572254   -2.18855095556219
O          -0.14683421756310    0.89425604146419   -1.76866628935112
O          -0.45747472248635   -0.92646303939375   -0.23470892742473
O           1.68340363664563    0.14104580534334   -0.35133556848049
O          -2.63342427445359   -1.05418527919967   -1.76228731298521
H          -3.03233247128766   -0.19239654522770   -1.62663134073677
H          -1.86675260054672   -1.09163533899902   -1.15467035775108
O           2.69992659204876   -0.86568564725971    1.83898861156301
H           3.33270808088663   -0.21279597273350    2.14413484624888
H           2.44372782509134   -0.58598879562723    0.92814223557968
O          -0.65246234717783    1.68732845899905    2.68951738720948
H          -0.21311472255208    2.04374472769911    1.87459478265585
H          -1.55849791279601    1.99772906091435    2.65853960318880
O           0.46129321737394    2.37564420085092    0.39696835052572
H          -0.04947884502284    2.23209628904870   -0.41396238811008
H           1.18511740588632    1.73671919386303    0.28193318167476
O          -0.93604156950285   -0.64152782357339   -3.82053043835679
H          -0.77441119765619    0.24249187111357   -3.45540653926914
H           0.29638769604509   -1.16619595697117   -2.93285320441915
H          -1.69724107565416   -0.98106239430752   -3.30728780969670
N           0.08175493589610   -0.84551643554328    2.29538459902379
H           1.13162578574761   -0.89392838272638    2.32728077441173
H          -0.34259919683971   -1.58203100154854    2.84803091596615
H          -0.24269960148535    0.10971085672497    2.59200804570755
H          -0.17308213121550   -0.94856809721062    1.25899115522373
