    26
        -50.44148896  Gyration_radius:  2.69861073207 Dipole_moment: 6.893
 S          -1.76712878746065   -1.16162515853035    2.03277265835511
O          -1.78872088597883    0.07878967272182    1.29625315358055
O          -2.79019535468087   -1.36534443014658    2.98941999565574
O          -1.72295285115864   -2.32563435629852    0.99858863989812
O          -0.38739175660155   -1.29967244466726    2.72718441403208
H           0.28489583007278   -1.13234621144625    2.01313397285251
H          -1.95727850725295   -1.99527588619785    0.08294813782688
O           1.30111313247612   -0.85229933831062    0.81214884147102
H           2.12457360021431   -1.33055595141020    0.92355295396165
O           0.12501044582062   -0.17811553396117   -1.57306859383857
H           0.52553061362578   -0.58252010729712   -0.78155547025948
H          -0.25533744030768    0.66549231830231   -1.24146769904674
O          -0.97564930565555    1.95330822843337   -0.34746622876616
H          -1.28260316918665    1.32097173482493    0.33824774965814
H          -1.77328007736677    2.34354701282352   -0.70891782110859
O           2.51678809260341    1.09326045961039   -2.19788935390214
H           2.57398304493841    1.40207520278451   -3.10257135670538
H           1.69312564208820    0.57583571271263   -2.13364932024534
O          -2.12485056631033   -1.59576261329442   -1.44960166405370
H          -1.31293940513582   -1.05513074907321   -1.61048325480517
H          -2.04195979531205   -2.38781202551989   -1.98437460257469
N           1.84623172657952    1.66578734905006    0.60639706306619
H           1.53885557117274    0.15206165986717    0.82202391878237
H           0.94371348511929    2.10730010763034    0.46181501353305
H           2.35569552733824    2.19294404799833    1.30243522407519
H           2.35077120035310    1.71072127939318   -0.27587637143862
