    26
        -50.46442418  Gyration_radius:  2.60491714472 Dipole_moment: 2.473
 S           0.37666718880103   -2.10484394205234    1.04664408462898
O           0.18820399325130   -2.26756567306542   -0.38572305856492
O           1.75516871633835   -1.86855797020401    1.40987321974374
O          -0.53406346859042   -1.11085853320130    1.60406799818242
O          -0.05179554447492   -3.47647467561889    1.71892245616095
H           0.62527386090478   -4.06624192427449    1.40395803644876
H          -0.03009495728216    0.43512356734037    1.79855839254623
O           0.24916027643595    1.38208234617475    1.83426900973331
H           0.15923610536358    1.64975567872250    2.74980992720183
O           2.52189979111936    0.49510128580721    0.48412569873078
H           2.43169478064883   -0.40649098614190    0.86148717849027
H           1.96105767603456    1.05279813357451    1.04529459150518
O          -2.58946463073556   -0.38597045365012    0.10067954957027
H          -3.39563199197045   -0.67204129223142    0.53109886771885
H          -1.84917303619965   -0.75780429879904    0.62671259208629
O          -0.25369260303578    1.98829661046868   -3.21836812680303
H          -0.64236351672718    2.55065192452849   -3.88876596651635
H          -0.70426683634810    2.19557708487723   -2.38840652258643
O          -1.18177869525887    1.81156237957778   -0.49417030345303
H          -1.87155273201991    1.13545459448522   -0.33938958747388
H          -0.74010045589363    1.92944818720251    0.36376424666675
N           0.72104441971773    0.09202902522414   -1.39668337001515
H          -0.05097540058676    0.73899684108650   -1.10321802664371
H           0.87426000042686    0.23343427265550   -2.39284271826221
H           1.57604617657210    0.32478380317110   -0.81487905089292
H           0.45524086351469   -0.89824598566177   -1.15681909820659
