    26
        -50.45843839  Gyration_radius:  2.77222138744 Dipole_moment: 5.235
 S          -0.66059502051196   -1.94504172751888    1.85652702634744
O          -0.47673779857226   -0.58356364892239    2.33926355012849
O          -0.54937785024720   -2.98464244279107    2.82697323809683
O          -2.19590831005388   -1.99466018381355    1.34895512993728
O           0.12848178246348   -2.16739483480306    0.63651378483295
H           1.26702307200402   -0.94824237568265    0.61534192655515
H          -2.44092800352696   -2.85157006985712    1.68004907079268
O           1.57117956879920   -0.02340266144771    0.77112873417434
H           1.12243583464757    0.17596156262144    1.60852507331625
O           2.95771966284548    1.86602886912528   -0.69844955590751
H           2.58213362544988    1.21350071151496   -0.08268602462851
H           3.75356326521118    1.47139041117161   -1.05764247304466
O          -2.22702179044454    0.80784374590493    0.97768940961092
H          -2.88533097893459    0.13050761145800    0.80126361934211
H          -1.60205471932165    0.37410749182045    1.60623149121311
O           0.90098277369667    2.88833955452994   -2.14732418266073
H           0.80725978935248    3.82051229802782   -1.94700712099092
H           1.72380894823091    2.59345465617823   -1.70581812531057
O          -0.87266664346893   -1.68180945750631   -1.73385158635253
H          -0.57996219890870   -1.94417599247127   -0.82767340236140
H          -0.44223935532128   -2.29016234501337   -2.33582284435709
N          -0.38352100878225    0.83426330844808   -0.92883160782671
H          -1.19731731498189    1.00267109561362   -0.28144125630110
H          -0.12857648465016    1.65574633032305   -1.50735613673388
H           0.43009496504574    0.58921940141231   -0.31836798941550
H          -0.60244579005402   -0.00888128833283   -1.49618974846007
