    26
        -50.47046826  Gyration_radius:  2.5065212932 Dipole_moment: 5.085
 S           0.38077996047628   -0.97202438252069    0.64614963970062
O          -0.23075304072965   -1.40706678725638   -0.62104699498455
O           1.72430262615130   -0.48744952673517    0.44411456838546
O          -0.46411355181655    0.05848500602895    1.26708613053741
O           0.42097899756438   -2.18635405624253    1.59626743504108
H          -0.44534724779688   -2.65636097385096    1.41562963595938
H          -0.66209700775188    1.38264091267099    0.39229080009635
O          -0.76142480933431    2.14966283990831   -0.23257144492664
H          -1.64175219497616    2.49857220108820   -0.08331373313464
O           2.04805470984929    2.23894029930794    0.43498748202638
H           1.14845164902760    2.56803959206649    0.33285050390108
H           1.95696968992299    1.31577426729706    0.72776457776067
O          -1.86416361964866   -3.02338118296553    0.78208331909752
H          -1.55758631626465   -2.65948389519463   -0.06187011337490
H          -2.45899686061046   -2.34055390051913    1.15835051431579
O           2.88779029665812    0.82435951474213   -1.67290020773018
H           2.83937517750259    1.58228203489632   -1.05145689873173
H           2.90453828905547    0.06214356436234   -1.07431645054532
O          -2.90199986207469   -0.76995980834016    1.82493826824250
H          -2.01481014851406   -0.38919494460923    1.63651655004764
H          -3.00359920849646   -0.74738368450412    2.77803505751299
N           0.32891985933352    0.60098204722862   -2.16124971840314
H           0.01247422358599    0.57018729071750   -3.12446359238105
H           1.39776904735539    0.72200945346495   -2.09010233837044
H          -0.13215576777513    1.36439875951125   -1.62550975844342
H           0.08839512934240   -0.29926465052648   -1.63826322159442
