    26
        -50.46908713  Gyration_radius:  2.36587884123 Dipole_moment: 4.963
 S           0.78919826564675    0.23360145441145    1.25691373869892
O           2.05539941405433    0.90888261323760    1.50222715440880
O           0.51244909341251   -0.70539503015519    2.43459366059720
O          -0.31771173036646    1.18681123741028    1.13839277807321
O           0.88324804854746   -0.56610349005026    0.02665654857413
O           0.14080372326478    2.33262174072589   -1.21290400799174
H          -0.09483013362478    2.14740412269224   -0.27824758078081
H          -0.32527124090361    1.61956922992326   -1.70981262866401
O          -2.56544214641921    0.12089790209192    0.39347401828069
H          -3.30161469704328    0.61912394452438    0.75134996150562
H          -1.74321667518410    0.58046029330533    0.70371715003579
O          -0.24177647480617   -2.94953817753410   -0.47486223460768
H          -0.67440338312201   -2.75752702769960   -1.31059187891927
H           0.33805390130151   -2.18562872764225   -0.29304768499006
O          -0.90805768298661   -0.02292696733226   -1.87487801062360
H          -0.23055506722292   -0.30513957412903   -1.22656088024894
H          -1.73686443428712   -0.03106170911311   -1.37678168625300
O          -1.53279918352521   -2.03462817824888    1.70467060698367
H          -0.31329125868980   -1.26709478871425    2.22062596876328
H          -2.08042725415839   -1.36749484256362    1.24845050637143
H          -1.15183925302128   -2.59412053900929    0.99542017816200
N           2.53814352326275    1.41642469692331   -0.95170263942531
H           3.33729186533797    1.98660938180935   -1.20984790780069
H           1.57882618804186    1.89249009322745   -1.18113542929132
H           2.56579066021949    0.50164583077856   -1.39652849196856
H           2.47889594216984    1.24011649117453    0.12040878100726
