    26
        -50.46406898  Gyration_radius:  2.5972413725 Dipole_moment: 3.461
 S           1.26996337750297    0.97961304075643   -1.52278728095304
O           1.38229683014718   -0.44821488825162   -1.76843324502626
O          -0.06817854386399    1.50393455165679   -1.72555138204663
O           1.81592334182144    1.34838953382854   -0.22161294797306
O           2.17295897412868    1.69302063994431   -2.61523502525198
H           3.00345590402809    1.22900764381578   -2.57215962599926
H           1.77642708082973   -0.06622829597816    0.62837052583490
O           1.52179559189179   -0.99608761416026    0.83730179950119
H           1.55502951381903   -1.40347871239167   -0.03966332018566
O          -0.60326653079962    2.25262062290996    0.72974748948058
H           0.32929667698768    2.36321551504206    0.95086220602391
H          -0.57648929546412    2.12372699120364   -0.24337974029265
O           0.43988303242776   -1.24488791691067    3.48920226144881
H           1.05013760670227   -1.28830684983261    2.74031211571898
H           0.93975419337160   -1.49521047694322    4.26660233970644
O          -1.17770428035447   -0.76642867557998   -2.50881629869514
H          -0.27014079802977   -1.09066427614161   -2.40544871151745
H          -1.05294698980476    0.19318186493719   -2.39802664256198
O          -2.71025890107148   -1.32120743562295   -0.44608977578763
H          -2.14931402911843   -1.21340081434307   -1.26062431153115
H          -3.55515066716806   -0.92235106148774   -0.65880764910212
N          -1.04229897463400   -0.28819076998452    1.35871709085262
H          -0.10235548899155   -0.67124155070950    1.09404256251473
H          -1.17831426748905   -0.51676982196610    2.34310585617527
H          -0.99170666602310    0.75921358242502    1.20769333513881
H          -1.77879670071581   -0.71325484624794    0.74067836447135
