    26
        -50.44910308  Gyration_radius:  2.45764643633 Dipole_moment: 4.544
 S          -0.06492410207050   -1.14403212256359   -1.65732489358540
O           0.93341839125268   -0.50016001850101   -0.81494147934563
O           0.04573076775761   -0.89102381422109   -3.04681220224958
O           0.00440646554210   -2.66205082806745   -1.42535087811554
O          -1.45563047930940   -0.73915354438354   -1.14373949034151
H          -1.47202136903057   -0.25097728913577   -0.23865647710561
H          -0.19522102296190   -2.92584260691132   -0.46890520708396
O          -1.59838954082698    0.51564832157832    1.05111424135330
H          -2.52775080007750    0.73330125523588    1.13680754808101
O           0.06735496314771    1.75472585058151   -2.19990303520128
H          -0.18494547645798    1.37118594721096   -3.04370676260611
H           0.57148346092110    1.06122394919107   -1.75933899034690
O           0.57813883550628   -0.97328710529087    1.78237078451585
H           0.83171523056364   -0.80178293247800    0.85154179747776
H          -0.22072593355401   -0.44043762345624    1.90790664336068
O          -0.36881989989537   -3.29227229506853    1.03235877205011
H          -0.01417971042630   -2.47918893644416    1.48195354668391
H           0.21919017923330   -4.01582804534977    1.25847358734194
O           2.23859013353611    1.36138674181748    0.95620964543588
H           2.13120207274804    0.74711368711835    1.68905344274214
H           2.09196222283756    0.83942757515238    0.15835909496970
N          -0.30422047390760    2.64161162582239    0.50613096542374
H          -1.08854277390953    1.42251814764853    0.85054350182026
H           0.66040164769962    2.43936491724200    0.77560630686870
H          -0.31911692079721    2.67864693019222   -0.51030900196039
H          -0.55910585767064    3.54988222307535    0.87055853983437
