    26
        -50.47001957  Gyration_radius:  2.50899991714 Dipole_moment: 1.664
 S           0.14361663710687    1.70534637951628    0.77219968675616
O           1.46255112099506    1.28153724660503    0.30755638075080
O          -0.82206283411403    1.81560139378259   -0.29174406325146
O          -0.30711705582527    0.85840987032447    1.86953794999087
O           0.34088910895513    3.15594105218527    1.36693266013664
H           1.10949660807005    3.05575569543789    1.91984884282192
H          -1.74063284375661   -0.02531207295825    1.86250911977881
O          -2.49971855748893   -0.64025533888911    1.76242224162741
H          -3.27676703418580   -0.15436399063385    2.04131909200869
O           1.10540243043201    1.25659780378529   -2.36109209413988
H           1.42557575666946    1.39310868854172   -1.45250413107284
H           0.17969328158916    1.51580778070635   -2.32549375157887
O           0.24625566745985   -1.81405474908595    2.24671440563050
H          -0.66433309060048   -2.10186123823418    2.36054454172474
H           0.20647716560756   -0.84357917402677    2.30600018982434
O           1.81944362031750   -1.33283405111014   -2.78562755670468
H           1.66167053875305   -0.36473028342539   -2.75768542982561
H           1.40896361412341   -1.64792661386144   -3.59171193977124
O          -1.75332658641140   -0.60836882864921   -0.84726025234178
H          -1.57284949053494    0.35100507026626   -0.79141892555194
H          -2.21453443537262   -0.81679239937625   -0.01323128174723
N           0.76415352066466   -1.23545774371012   -0.32071352642148
H          -0.25075147557337   -1.08783197152216   -0.60458574842771
H           0.78321403245198   -1.81425295139727    0.53834894347896
H           1.28786201667482   -1.60109475648251   -1.13811385785850
H           1.15682827397665   -0.30039480778465   -0.07275148583956
