    26
        -50.46779925  Gyration_radius:  2.57161881455 Dipole_moment: 6.444
 S           0.67401914157324   -0.06682936754097   -1.04464422629272
O           1.66092821481391    0.45043174687392   -0.10681144237569
O          -0.07510197256102    0.96557895301487   -1.73380251770769
O           1.44367098383965   -0.91868794581971   -2.08149426556942
O          -0.24950781252298   -0.97639563465578   -0.33288986874621
O          -0.02757548660527    2.39089037831554    0.55017281839883
H           0.80832301098045    1.89574081223435    0.51335012342592
H          -0.39373621043066    2.21067453996641   -0.32885922901403
O           2.54972034000373   -0.50217769141625    2.16184825550111
H           2.36795273655294   -0.21390102732997    1.23591989022932
H           3.00872451480218    0.22999040670641    2.57782552536265
O          -2.15036646518566   -1.37918894904451   -2.15217196511066
H          -2.71124002483533   -0.60930214729196   -2.03924253948814
H          -1.47501108226652   -1.32289548530410   -1.44571183877285
O          -1.28770690444573    1.37548544690832    2.63582454580084
H          -2.22296514050785    1.52591077330061    2.49140414537314
H          -0.81753692470728    1.85363675836276    1.90469102860717
O          -0.30178720736714   -0.54827309577747   -3.93542280457984
H           0.87914040843782   -0.90797765240621   -2.90686208785391
H          -1.04964168534508   -1.04676588380183   -3.54774305893832
H          -0.35078863213341    0.32487114332734   -3.51566826665193
N          -0.06650611848844   -0.96293468652434    2.24890415495297
H           0.96177862727039   -0.83167740497327    2.42475104430038
H          -0.16187797032276   -1.04305819572903    1.18399839149468
H          -0.42026055686741   -1.79474513707434    2.70815681648548
H          -0.59264780368237   -0.09840065438259    2.53447738115979
