    26
        -50.47361574  Gyration_radius:  2.43347415705 Dipole_moment: 3.317
 S           0.30763644352352   -1.36747090156794    0.59167061764243
O          -0.28878767973008   -1.29302384082486   -0.75228540703542
O           1.54473367932958   -0.61311149125667    0.65277810112784
O          -0.65531955593025   -0.95185949828008    1.59404689433876
O           0.68494509316440   -2.85937321727708    0.85258716655194
H          -0.16718612981429   -3.32860521070320    0.78038489883926
H          -1.82055339774653   -0.00596625687460    0.82042889773351
O          -2.41619668843205    0.48170876308035    0.21332206846041
H          -2.51680029188808   -0.08283281002224   -0.55593843460059
O           0.68485450540116    1.65889736191353    1.77281450862677
H           1.08383058125005    0.83740594429826    1.42778689822017
H           0.04127850546546    1.35880573025001    2.41971434685975
O          -0.75385222600779    2.51452612654212   -0.32323265995992
H          -0.19128703294266    2.42224301119818    0.47729371625362
H          -1.53411008455580    1.95097245601858   -0.13070841200832
O           3.02005117094739    0.93464470579957   -0.91575825477765
H           2.68286717311482    0.23393728586390   -0.32151607880679
H           3.23599108189597    1.67454217326970   -0.34312406686621
O          -1.91119927392546   -3.12522030344766    0.37464925173773
H          -2.14601895695778   -2.56060389774963    1.11920658262372
H          -1.57798773890865   -2.52788886239026   -0.31317907034316
N           0.54012452037154    0.93392151539440   -1.92102894461071
H           1.56169673831535    1.02096641386317   -1.69285915295811
H           0.37262079407117    1.01650193939846   -2.91762001503947
H           0.22204200198016   -0.00353040565965   -1.55905373942946
H          -0.00337324182313    1.68041325902521   -1.35037971263940
