    26
        -50.45816317  Gyration_radius:  2.57924304318 Dipole_moment: 5.587
 S           1.62511918970355   -1.52731184837699    1.19210365999968
O           0.21139962794983   -1.23673679715725    1.46025524503994
O           2.07025822771504   -2.79025364666628    1.68402291152699
O           1.67946705121866   -1.68625648881520   -0.43144252607866
O           2.45338101324668   -0.37377566056019    1.47138554770519
H           2.10701962284271    0.93648057585801    0.70475289239122
H           1.80320987868425   -2.62841578683500   -0.46201638456771
O          -0.63990007145555    1.22425923902952    1.19744536765003
H          -0.34912809769467    0.32931975604835    1.49378449796146
O           1.84369593501154    1.77800299527718    0.22859462848829
H           2.54097730069271    2.40766388570101    0.41659163869845
H           0.18950819426409    1.67932791258695    0.96793786601412
O          -1.35066320584929   -2.30386782300575   -0.31023890447423
H          -0.72114923238164   -1.99234915444684    0.38955328804865
H          -2.08408984363535   -2.70535796785422    0.15842284701513
O           1.20064235931367    0.49469241657650   -2.08404242402156
H           1.51252026668018   -0.36261941586090   -1.75940025528391
H           1.49549120255314    1.12716580601307   -1.40045684896892
O          -3.10851121547308    2.00094697221136   -0.02847831021158
H          -3.77295313229566    2.57743963183642    0.34956315896085
H          -2.41240805518079    1.90997874596685    0.63722529635270
N          -1.27800530925461    0.22690253232944   -1.20536329109947
H          -1.44210566836364   -0.79183562275809   -1.03702236137406
H          -2.08673766952780    0.68597764172280   -1.61563095521173
H          -1.09970643834285    0.66442190014662   -0.25784965654936
H          -0.38733192038823    0.35620019104182   -1.75969693800584
