    26
        -50.45869660  Gyration_radius:  2.39065081359 Dipole_moment: 8.396
 S           1.22577762569025    1.65408596667441    0.04905891580686
O           2.42444022422926    1.06510193483616    0.60168545393980
O           1.38796515360117    2.73941471511730   -0.86858856951982
O           0.53087411807226    0.46601395813602   -0.79235989675690
O           0.21219208157208    1.93635210521622    1.08684084995668
H          -0.49203318213837    0.71160325387362    1.62957142589604
H           1.15053477105411   -0.28502202108926   -0.84878164137000
O          -1.02125318049544   -0.10202789348338    1.92185832483527
H          -1.41653006745334    0.14076207590337    2.76076051190726
O           1.87361256859953   -1.84978040209087   -0.75408596431701
H           1.80966093668455   -1.76295843515908    0.24056439673604
H           2.79752196662956   -1.71103683356193   -0.96890023868786
O           1.61131027237372   -1.16047656099070    1.73460489186306
H           0.68298016351685   -0.97116354358730    1.93104202683612
H           2.00941033770336   -0.29327745577364    1.48556089054972
O          -1.36244244019050    2.38554455613987   -0.93852213469557
H          -0.87662541251142    2.40314460132216   -0.08409930379182
H          -0.66116534271288    2.61112266802973   -1.56138845498186
O          -0.75399083110251   -2.26973205639637   -1.51699120333175
H           0.20012480921955   -2.10044346762449   -1.44156794333498
H          -0.91825905372748   -3.05711541717674   -0.99391095166133
N          -2.10938927364629   -0.12022514880419   -0.54584784625205
H          -1.57152923906901   -0.86150319091603   -1.05304244124826
H          -1.79153877499961    0.85183192204479   -0.86438632380944
H          -3.10970618478752   -0.23473736260574   -0.67213324203439
H          -1.83194202612451   -0.18547796802240    0.46305848747779
