    26
        -50.46715471  Gyration_radius:  2.443032549 Dipole_moment: 4.126
 S          -0.51250503971670   -1.86298044271301   -0.11037966958642
O          -1.82438622474542   -1.22730516829230   -0.01956842467108
O          -0.17829236710891   -2.25126251440517   -1.46275342859945
O           0.51820876500281   -0.97840136942485    0.44866595241984
O          -0.53377631447722   -3.14984440341813    0.77387401047353
H          -0.84246813752237   -2.83841817062236    1.64054123136430
H           0.14816772324555    0.28193622644872    1.33503564791218
O          -0.03230958519193    1.11398144869565    1.85193812209249
H           0.50955129941538    1.05346503903053    2.64108486001697
O           2.45036938254640    0.39614224867513   -0.88101717043803
H           1.99402591252459   -0.22619318412498   -0.28485483696445
H           2.31307075507754    1.28033514742204   -0.48755366868421
O          -1.64694418741966   -1.46987985671995    2.58943575531374
H          -2.00890942591792   -1.29696364942183    1.70039055126737
H          -1.31733496473859   -0.62127484108043    2.89763097975434
O           1.45518414915161    2.68387104174496    0.20216600409218
H           0.87703379106401    3.27227569390766   -0.28533121276457
H           0.89919070295174    2.22135924103467    0.86196406435760
O          -1.40784277832160    1.23296525286940   -0.81825657677981
H          -1.75017410962906    0.34159386313565   -0.58020469140562
H          -1.09593402509130    1.58886393434078    0.02012295091006
N           0.39595822527970    0.10635016635329   -2.44620092198334
H           0.16224532886963   -0.90166539108041   -2.21683569978769
H           0.40080406820235    0.27400795420758   -3.44622244407827
H          -0.31985598137070    0.69121000147606   -1.94441031973467
H           1.34692302791655    0.28583172197606   -1.97926105451295
