    26
        -50.47314775  Gyration_radius:  2.38308733968 Dipole_moment: 3.676
 S           0.81622831977449    1.26540643088380   -0.57586086122106
O           1.34069157050830    0.87942200863942   -1.87246188285400
O           1.56451027582888    0.30297915350092    0.44194133680074
O           1.07666374049839    2.62183759851253   -0.17623963771585
O          -0.60518129557172    0.90670224769412   -0.45176851113915
O           1.07065279785219   -2.42794938239532    0.14382465800258
H           0.22733135015706   -2.16910656279912    0.58346935171490
H           1.68143581269527   -1.71484333079104    0.37196017699969
O          -0.86468753343567    2.84513849990632    1.54897521279696
H          -1.58396129296573    2.50245409235076    1.01145815281002
H          -0.11991125539636    2.95919995246446    0.91259951793862
O          -2.08331068301252   -0.86093668339162   -1.78710153172562
H          -1.69593938183947   -0.04455353080613   -1.40884411464971
H          -2.42460708401836   -1.34867478490803   -1.03172900419482
O          -1.06450758729185   -1.15999449003562    1.13624357322841
H          -0.84677691992626   -0.85103023375024    2.02101565922679
H          -0.93414821219811   -0.37160368533639    0.56347434542060
O           0.32415855700287    0.82975636669872    2.68830076968711
H           0.90450039898263    1.17909299395833    3.36709536735132
H          -0.20969443047029    1.60895602097526    2.35834751444596
H           1.15478912830428    0.49514651348625    1.32291098358367
N           0.45882046331367   -1.51308988490961   -2.25872242779619
H           0.77777819531005   -1.97821362635057   -3.10136508865442
H          -0.58662248517874   -1.39951676929392   -2.24424499925389
H           0.74977525010925   -2.03333336154234   -1.38013158191973
H           0.87201232037458   -0.52324555337459   -2.18314699002635
