    26
        -50.45299592  Gyration_radius:  2.45042479026 Dipole_moment: 3.328
 S          -0.34950148213582   -0.20625611701552    1.58285618511580
O           0.75131971443773    0.72859640292087    1.43879925713590
O          -1.32191278974986    0.16246170765323    2.55637385760486
O          -1.02814728176988   -0.34967181189733    0.18343889927308
O           0.16035615494372   -1.60296210095543    1.83079792514704
H           0.70188057439612   -1.96635241017488    0.96730655338465
H          -1.15689920712506    0.59214601980482   -0.23558418318641
O           1.20064031112728   -2.48297949328587   -0.22682558118513
H           0.40491018827956   -2.97723801066744   -0.50630986914039
O          -0.98138017339913    2.78297309222236    1.80851886049410
H          -1.60658909661385    2.29714741842347    2.35744730448301
H          -0.16886899800668    2.25576660329095    1.86448322107616
O          -1.17890196075098    1.98722207042467   -0.72019018780064
H          -0.24809819014072    2.12998903522666   -0.97925673491277
H          -1.28165550442083    2.47405080671378    0.13086839764602
O           1.54571458981655    1.97370870315622   -0.74612398903976
H           2.10502155227586    2.71599845817718   -0.51044289917146
H           1.37675088220761    1.48099001319512    0.08745349947704
O          -1.42433883433918   -3.01537610480196   -0.57372597661635
H          -1.48613537404652   -2.06486818882583   -0.39641049545655
H          -1.81081142489355   -3.45747507138935    0.18461124300380
N           1.16575349744485   -0.62064119029579   -2.10891515849155
H           1.28417640611912   -1.74409994347893   -0.90593301315659
H           1.68722161622886   -0.84044851475874   -2.94794826438413
H           0.18740611550554   -0.54135698001850   -2.35829869845277
H           1.47208870461194    0.28867560630841   -1.77699017282647
