    26
        -50.43489956  Gyration_radius:  2.43202488091 Dipole_moment: 6.009
 S           1.18095673128662   -1.76550472178144    0.76903222551116
O           1.58875265602820   -1.13235617323343   -0.46568157573863
O           1.93209578945699   -2.88636239725568    1.19233217200634
O           1.11878071796245   -0.68271121976496    1.87530313538660
O          -0.30977640823191   -2.17530136078408    0.61274667730148
H          -0.93078710422895   -1.42445022942452    0.91757579595965
H           1.33990778210345    0.23780952503201    1.50218919409946
O          -0.90034902438357    1.69357496386988    0.31705389249140
H          -1.41841364977425    2.47793119854084    0.15177312352949
O           1.49010689625112    1.69473359684593    1.04391850199126
H           1.61031096855931    2.25373419541409    1.81295368504355
H           0.50655448907383    1.79721889968666    0.74872354800649
O          -1.92241148271893   -0.34522060867529    1.33014313411059
H          -1.84369136075617   -0.27433706898940    2.28230716965175
H          -1.54694434248127    0.54412316272948    0.94383202713048
O           2.27483761262652    1.33226839694736   -1.71135187626559
H           2.16800085314350    1.70255350488919   -0.82736067208486
H           2.46783438230319    0.40219304393617   -1.55442373167266
O          -2.42094103818614   -1.49770973732585   -1.27488279064911
H          -1.91510127630810   -2.27407893957902   -1.01509818745035
H          -2.69670917917300   -1.08779503555142   -0.44583141818991
N          -0.36142056183842    0.27380398267214   -1.68448291881558
H          -1.17490952001688   -0.33417777380554   -1.86481334608360
H          -0.03021753939557    0.76996661949461   -2.50512627363255
H          -0.62680366113886    1.00177495752893   -0.84108884167914
H           0.42033728983555   -0.30168079141613   -1.30974267995239
