    26
        -50.46802200  Gyration_radius:  2.39445598824 Dipole_moment: 3.918
 S           0.76978600333837   -1.22123828471493    0.62781155320575
O           1.14107454753266    0.02684728726959    1.25999015722052
O           1.70893081719748   -1.67920192225603   -0.36620825911500
O           0.77488755844461   -2.34100165581407    1.76585041563362
O          -0.60209961810888   -1.17893779519953    0.11854344728998
H          -1.26353296311619   -1.00684952532661    1.75785441623990
H           1.42048397123996   -2.96000129655731    1.43997585270031
O          -1.45442142272760   -0.80049461237689    2.68486263107079
H          -0.82592758565568   -1.31671216668244    3.19284367733239
O           2.36815945179399    0.82220195190439   -0.95281625821834
H           2.12626357687917    0.91341719550593   -0.01558909366136
H           2.38989209570357   -0.14700825209048   -1.05501300815732
O          -0.68933359856456   -1.12250770505680   -2.54901778670626
H          -0.56290259254463   -1.28726463500899   -1.59096509389688
H          -1.58778340757981   -1.39499851958946   -2.74579957573723
O          -0.67293748502985    1.81691860309864    2.19198846308069
H          -1.21178916219410    1.15059678754762    2.64680474835418
H           0.13931798968298    1.33075120937489    1.96837166563733
O          -1.61028725724581    1.34868573247856   -0.22349507179417
H          -1.47674664570725    0.39366362275795   -0.09395633972541
H          -1.34701218150076    1.73664231293123    0.65003666572444
N           0.09918969622717    1.41185611988314   -2.16861961893960
H          -0.60583125933364    1.56965662116365   -1.36540096117858
H           0.08024426929815    2.15768501848633   -2.85459542000572
H           1.06627236115746    1.28647093296974   -1.74420741606442
H          -0.17389714866367    0.49082296505255   -2.57924980000680
