    26
        -50.47168696  Gyration_radius:  2.49106949035 Dipole_moment: 3.006
 S           2.12561388768336   -0.70024845709768   -0.54359515385436
O           2.00172450934402    0.13225305089739   -1.73532307132988
O           2.52375089067062    0.02686408548871    0.63476456990044
O           0.91131866403743   -1.48727255482907   -0.34144026745573
O           3.28251375638904   -1.73372450055244   -0.85546376449727
H           3.00699229646532   -2.07208015115235   -1.70050711208201
H           1.51633525992861    0.91165866020465    1.50383157237661
O           0.84801039108435    1.39600167261854    2.05280255805326
H           1.34898817241914    1.98389462716708    2.61973774747340
O          -1.52314958825741   -1.33017939672179   -1.47732098323113
H          -0.66379935615578   -1.61145921827383   -1.10698630100385
H          -2.06593483474939   -1.10502345429403   -0.69991338677764
O          -0.31576154507941   -1.14184536743776    2.00645149842280
H           0.20039755235416   -1.39146418067644    1.21259066411287
H           0.08303985317460   -0.31438965781493    2.31295487563823
O          -1.21857992864141    1.99768947775219    0.38643399599635
H          -0.47970306259660    1.89867652382249    1.01691153897411
H          -1.83992277635337    1.28026071494333    0.60742166852906
O          -2.53561034087004   -0.36656063381392    0.89217450211248
H          -3.29329778151640   -0.62330169111606    1.41791041447493
H          -1.72751073196657   -0.71448981177997    1.37179543385496
N          -0.44076699095052    1.01635448231614   -1.93732344602348
H          -0.63310003316706    1.56577024517150   -2.76699390920421
H           0.58376564066207    0.74358434706709   -1.89140358691945
H          -0.71156003095398    1.53914494832421   -1.05223848529610
H          -0.98375386290004    0.09988624974254   -1.92727154227833
