    26
        -50.47016051  Gyration_radius:  2.3971334794 Dipole_moment: 2.167
 S           1.32339208363561   -1.14108737026591    0.42606080165741
O           0.93237039724291   -1.10635188441562   -0.98369275545566
O           2.02637633237214    0.03886741620438    0.84354605048870
O           0.16882386499643   -1.46129819515124    1.26125569142327
O           2.32217126545651   -2.35282623268319    0.57473901980541
H           1.78834392289598   -3.11359811814567    0.36962435265061
H          -0.79603469963592   -0.23789341519709    1.81220608738212
O          -1.38563409678795    0.51235172682749    2.05831620212273
H          -1.68658728958552    0.33288567889220    2.95028446839132
O           0.49632053920939    2.21887009042607    0.98294188293807
H           1.21120823964275    1.55622240495332    1.05271924326788
H          -0.21542802168265    1.88188598592121    1.55088924453866
O          -2.72639766193732    0.39091446411117   -0.38080107569019
H          -2.57375732556876   -0.56973779895252   -0.51379400223514
H          -2.51873174121366    0.54670008749674    0.55516324759925
O           2.43739172424864    1.05107327356877   -1.83129697309755
H           2.11910497317406    0.15391543725474   -1.66754795046074
H           2.87299670860790    1.31067964242333   -1.01603074771282
O          -1.65751268805483   -2.07069826304228   -0.59400104024809
H          -1.06141574831922   -2.04974568343972   -1.34837184945368
H          -1.07360373145637   -1.95116324296043    0.17941220505959
N          -0.40907946091672    1.22456660105556   -1.28368064419930
H          -0.26425232695212    1.71467543004630   -2.16070884885674
H          -1.43060828000833    1.00108124286293   -1.07353670832728
H           0.12319181498867    0.32718526158054   -1.29426894550038
H          -0.02264878428783    1.79252548072389   -0.46942694603229
