    26
        -50.46584920  Gyration_radius:  2.55124748801 Dipole_moment: 7.049
 S           0.00650160177907   -0.27126422516083   -0.94884383632202
O           1.34257855211506    0.26505617165904   -0.69126314700186
O          -0.78582838942316    0.65541861890679   -1.75368087692583
O           0.03205978078971   -1.61681736457282   -1.46619696109369
O          -0.73789475947832   -0.29140973823135    0.43619408594418
O           2.38203663405922   -2.05052807570381    0.06862693953755
H           2.15172998969400   -1.14482773138952   -0.21873926644600
H           2.07461880924959   -2.61798862849931   -0.64414267571398
O          -1.98950633993136    1.80391830688236    1.60942578814871
H          -1.51776374846019    0.99012338015088    1.34498424429871
H          -2.90274585509124    1.55083235414290    1.75328289493660
O           1.80996332714089    2.72504841809207    0.00324790019513
H           1.71053180030262    1.75565694088107   -0.17668384062726
H           2.56748669534553    3.00752403908659   -0.51146156123537
O          -0.90233496302892   -3.73949431652668   -0.18576051704551
H          -1.82074776431281   -3.86217615622935   -0.42794269115552
H          -0.56215272798364   -3.02110857192575   -0.76161546021983
O           0.28545560962262   -2.20923877033696    1.68611276239942
H          -0.18096700818470   -2.94816385976848    1.24744100047019
H           1.18967240795734   -2.21487075322673    1.28910960957656
H          -0.31815870323838   -1.05616010629035    0.99971034738836
N          -0.77868092757125    2.89438056516328   -0.53326141936944
H          -1.31446456959082    2.70469649748202    0.33957570920110
H          -0.81408336787521    1.97332884001874   -1.11776599983015
H          -1.16199148921515    3.67963890682855   -1.04752179385302
H           0.23468539531939    3.03842525856179   -0.29283123523666
