    26
        -50.46798967  Gyration_radius:  2.52101282227 Dipole_moment: 2.274
 S          -1.55424345008925   -0.27290950462826   -1.45797323234230
O          -2.58566793583578   -0.73829534219694   -0.56420288578088
O          -1.09862476679680    1.07465092002886   -1.16091807630083
O          -0.42555752378916   -1.19205694663483   -1.58040039288253
O          -2.21202586498319   -0.22891490427445   -2.90164508573512
H          -3.11144304938186   -0.02626287331519   -2.66987079868345
H           0.22139632642718   -1.75394516337603   -0.21007021465773
O           2.54416066494371   -0.06830719917819    0.31761862154194
H           2.52050503859539   -0.05577577538275   -0.65946308568727
O          -1.49971529306995   -0.74748897604520    1.87866822775855
H          -2.03521135040487   -0.71027963268573    1.06217599131740
H          -0.71134146477757   -1.25925275792797    1.63720684491163
O           1.81073917977584    0.04411335923275   -2.26889020093824
H           2.07770718747767   -0.30604289324012   -3.11946007950566
H           0.93448831534009   -0.35298945246378   -2.07393679676685
O           0.63915768683551   -2.02451318479057    0.64567481711696
H           0.68550130193701   -2.98170808496186    0.62855970338444
H           2.01775816850639   -0.84651200954754    0.57197365926308
O          -0.57605857553023    1.49260665881894    2.87583407729551
H          -1.05668133077127    0.68860614066463    2.54305821508378
H          -0.14044114501328    1.21927781709361    3.68461106086384
N           0.72211736184053    1.82661531230807    0.57020527144047
H           1.52034958921201    1.12213774439524    0.52889364610087
H           0.26167049369520    1.79879026065683    1.51569314960734
H           1.05343656510481    2.75996331932274    0.35338711050300
H          -0.00197614925028    1.53849316812966   -0.14672956690762
