    26
        -50.47619452  Gyration_radius:  2.4029336085 Dipole_moment: 2.088
 S           1.17281935412769   -1.03630532145201    0.69671301864583
O           1.38013549690961   -0.55843929399582   -0.66210461745761
O           0.35255248458618   -0.13392871389886    1.47897876166140
O           0.72597816256079   -2.41122602340157    0.73442245488614
O           2.60407756467922   -1.01782458770804    1.39397656282724
H           2.95822802720661   -1.85010784318400    1.10176466442090
H          -0.82135449400384   -2.32867927487376    0.25756313487157
O          -1.74231651945037   -2.23179447102817   -0.09006742235989
H          -2.15406168755158   -3.09163529398292    0.01435338629669
O           1.15531522415922    2.09583992030897   -0.80075398607970
H           1.44186964896023    2.33493347066026    0.10179934788966
H           1.37764951911948    1.14540268929460   -0.87195620410652
O           1.98197034299314    1.93628585692775    1.76967787671545
H           1.33979882779525    1.20181759424383    1.81452343142279
H           2.84106871296925    1.53232663154777    1.90503578157356
O          -0.76983023595769   -0.82063286226271   -2.24131515691527
H           0.12235025361662   -0.80107923860187   -1.84176256710951
H          -1.27260368092762   -1.42825685140666   -1.67359919334220
O          -2.22227331239246    0.29148016601276    0.95592237983032
H          -1.33975479984137    0.23796405970735    1.37031750715154
H          -2.36453596984366   -0.60728510367331    0.61747605061807
N          -1.37582283128867    1.53758871134054   -1.21590619568044
H          -0.39957227162305    1.91965596388627   -1.01171046450796
H          -1.81260599429798    1.19206741961048   -0.31289623760260
H          -1.95535809977118    2.22334561482929   -1.68530936551229
H          -1.22372376279739    0.66848677111803   -1.80514293810540
