    26
        -50.45325266  Gyration_radius:  2.52353560068 Dipole_moment: 6.770
 S           0.00551815412024   -2.07244131242205    0.85807383954128
O           0.66481982952858   -1.89601272010272   -0.43960231036076
O           0.09735821247151   -3.37016300486120    1.42856412385317
O           0.77671137442749   -1.03454759308491    1.80468821370736
O          -1.36990831638287   -1.54273830270731    0.79456058926259
H          -1.53537293841257   -0.00669377972804    0.88420362933628
H           1.37350447578152   -0.58808586453386    1.18691990222402
O          -1.61472410695188    0.98764258769995    0.75207017743366
H          -2.54820152704308    1.18608267923544    0.83976950151835
O           2.23706330001300    0.92969551365648    0.48537098630136
H           3.11403295003827    0.92967937179365    0.87168702129256
H           1.64104720713479    1.39892987230418    1.12669197663198
O           0.49698767683986    1.77533372039756    2.27141774054987
H           0.54834284701708    0.98219027125310    2.81570630045357
H          -0.32837515560550    1.66950895724399    1.76141919965503
O           1.68222553318788    1.78964345469375   -2.06929041935039
H           1.80035429201220    2.74009255566454   -2.05039993132904
H           2.00016184173033    1.44841679427921   -1.21207373516692
O          -2.41716053640043   -1.64192307363191   -1.67534096201916
H          -2.45839893942033   -2.55307033456584   -1.96715540578384
H          -2.12748210928397   -1.67843962974699   -0.73876803129857
N          -0.40859432520967    0.13659982904682   -1.57324808177248
H          -0.84647798299180    0.66820519657751   -0.80065736735002
H          -1.15714505747238   -0.29287451697193   -2.13158195023148
H           0.25221208828567    0.73510059551946   -2.09127194046428
H           0.12150123258204   -0.70013126709216   -1.13175304688257
