    26
        -50.46357511  Gyration_radius:  2.60038149811 Dipole_moment: 4.807
 S           1.43610494926162   -1.56846532549609    0.65027119279759
O           0.25747631799389   -1.53574550760693    1.50815457835310
O           1.15707233249572   -2.02138990978758   -0.69280991859634
O           2.15110086105473   -0.29529533450890    0.69238012391403
O           2.41586199449674   -2.64717573739385    1.27731208248919
H           2.58422124902946   -2.33040475629255    2.15950794008175
H           1.07021742852880    0.78467177899072    1.33759539226786
O           0.18579102095035    1.11037345167538    1.62793207643858
H          -0.20354546745727    0.29611852871461    1.97986611440281
O          -0.48662298181339    3.66360905962943    0.48604432609927
H          -0.22255157372315    4.50999042770809    0.84789512165728
H          -0.21503715998010    2.99126285915114    1.12565857096076
O          -1.46389942406840   -2.50026037740689   -0.26304215990031
H          -1.00883352217813   -2.19285614845288    0.54525955465384
H          -0.72206425511601   -2.70033517066930   -0.84860895200343
O           1.54694929114299    0.27866734489463   -1.89313068531727
H           1.38710049593430   -0.67438412201928   -1.73338427445813
H           2.14593302374787    0.50331761895131   -1.16788193380245
O          -2.71528462807402   -0.43013402769417   -1.29049004871318
H          -2.28246334814970   -1.26217975341694   -0.95760451497218
H          -3.56092081294229   -0.37665472276608   -0.84363561810775
N          -0.70654272277586    1.28734955710491   -0.92731145883835
H          -0.46875174485000    1.18886228667676    0.08980320253907
H          -0.87690774339769    2.27864638786421   -1.09358748855776
H           0.14079983524451    0.94634237487719   -1.46634012216671
H          -1.54520343537539    0.69606919726852   -1.14985311123668
