    26
        -50.47033056  Gyration_radius:  2.49996894992 Dipole_moment: 2.143
 S           1.52492132143336   -0.67077271472478   -1.12623648223714
O           0.27487336342401   -1.43733519235697   -1.14177006641844
O           2.46434202502169   -1.20468188283998   -0.16758700942921
O           2.17843615574652   -0.86561317445235   -2.55706111059295
O           1.28727687909742    0.75183170519301   -0.98947850023700
H          -0.06957790874227    1.00661234283163   -2.36606189888942
H           2.66428270147370   -1.67973284786952   -2.46998237875028
O          -0.84359183988408    0.48603176913677   -2.61856878337271
H          -0.64084602326689   -0.38845835178616   -2.24666852197343
O           0.76558193005376    1.70947463664996    1.39131795694807
H           0.96315047742485    1.37903715945229    0.48219428632434
H           1.08307121503748    2.61343927391393    1.41703073886034
O          -2.70384786040721    1.44962553437573   -0.96161287552830
H          -3.55884675403759    1.24947327374414   -1.34334470850529
H          -2.03089523000018    1.13497853816465   -1.61103297954861
O          -1.85613906001988    0.85158277197218    1.50580776575669
H          -1.01502017318513    1.33672480139093    1.57412517422564
H          -2.23836901659583    1.11183982721115    0.63984418281220
O           1.61492305711413   -0.77208135129522    2.31316964265938
H           2.10355442325162   -0.98653868380243    1.49043619001144
H           1.46373756867339    0.18587054670574    2.27361114736581
N          -0.70712141365940   -1.48045157128457    1.30961812954560
H          -1.29902431108702   -0.58801054563112    1.41016654082957
H          -1.20709606044384   -2.30695017064771    1.61597149740305
H          -0.40326914987258   -1.56411384014999    0.30715524378092
H           0.18549366335765   -1.32178186384961    1.86895683901742
