    26
        -50.47020183  Gyration_radius:  2.43832864622 Dipole_moment: 2.379
 S           0.06494245182258    0.00216550135929    2.18513220374828
O           1.32773184831731   -0.59487082833842    1.80444884720390
O          -0.92919948734266   -0.90593308728922    2.68093132143841
O           0.37442635385079    1.01912623498430    3.36976511568009
O          -0.44368353050181    0.84421814657097    1.08486046011686
H           0.98624602968197    1.26164307721680    0.36580710100733
H          -0.21087872766003    0.71739871926660    4.05707747096888
O           1.85391779083087    1.32160656519955   -0.09336353873373
H           2.44460709805408    0.86128404590431    0.51218927878613
O           0.71637656324835   -2.34785113026856   -0.08348519668117
H          -0.25189142828449   -2.24089799146365   -0.05203921202280
H           1.04540540385508   -1.85555057229981    0.69889963279161
O          -1.77743788369283   -1.22269414720027    0.06598085346863
H          -1.35783053039569   -0.42555415555956    0.44709501149582
H          -2.22517967937504   -1.62667701799876    0.81431002955720
O          -1.20780155165929    2.38289396500213   -1.01832396117196
H          -1.08829126314872    1.93231435398994   -0.16647646387421
H          -0.42004799808953    2.91608434117264   -1.14352828386622
O          -1.36297437616735    0.06663072933608   -2.38714549971002
H          -1.78118943808519   -0.49717508674294   -1.72024683309719
H          -1.43655687940552    0.97794462702680   -2.03105653971987
N           1.15662019831818   -0.51655263606604   -1.90577595963206
H           1.76180917154823   -0.70898035087387   -2.69533347147328
H           0.16437143861827   -0.27433267527317   -2.22052088561708
H           1.07214300997576   -1.36119308842604   -1.25412186484930
H           1.52436539569587    0.27495243075709   -1.31507960582537
