    26
        -50.46452793  Gyration_radius:  2.47496123635 Dipole_moment: 3.353
 S           1.72480217951236   -1.10832437420444    0.72944110313364
O           2.00666110801070    0.06649498369065   -0.07565325295229
O           2.45946408351003   -2.28950153814387    0.37013398628507
O           2.22121657243029   -0.72186508506661    2.21589139314977
O           0.28674724817344   -1.30323260366743    0.88718823965300
H           0.05056945244828    0.20503800711680    1.43488667811924
H           3.03075209123601   -1.21111823512671    2.33306112017734
O          -0.12029057834549    1.12318266356558    1.75158852115041
H           0.62786449092929    1.32486013400494    2.31617950249415
O          -0.82377100855521    2.69546338229285   -0.42087422691003
H          -0.40373013320627    2.31530812655443    0.37265359055855
H          -1.76448985213317    2.52492932190107   -0.30497340839940
O          -2.74487577362330    0.93890001125503    0.89636655860594
H          -3.38418788520730    0.59080545701767    1.51931018487746
H          -1.89946132798170    1.00454074376369    1.37205555320870
O           1.01522169340728   -1.99802199991767   -1.91110777162895
H           0.27349291080893   -2.59159092695622   -1.77482570235987
H           1.65925610369146   -2.20808727431707   -1.21904985463168
O          -1.70743404921500   -0.95828330098826   -0.85805187423294
H          -1.04946189538791   -1.28367927135170   -0.21313044311004
H          -2.24798512259880   -0.32179388524008   -0.35843434441568
N           0.15606920078803    0.65686007530720   -1.84526208448145
H          -0.60051171547890   -0.05890873779192   -1.65009392798423
H          -0.18495306403602    1.59362894565107   -1.52795679484606
H           0.97206696573958    0.38923542548880   -1.22390329381599
H           0.44696831507282    0.62515993519012   -2.81543944162121
