    26
        -50.46731880  Gyration_radius:  2.47131105335 Dipole_moment: 6.766
 S           0.62763378396123   -0.60084068853568   -1.27207425867234
O          -0.33787331321570   -1.03642730109381   -2.26718785909743
O           0.51379289059917    0.80053672559764   -0.94035413360300
O           0.53781039247428   -1.43933573310193   -0.06575414644706
O           2.06839485678425   -0.80528570020969   -1.85828967875593
H           2.09303999818369   -1.75696781072649   -2.06678732448836
H           0.52626726079492   -0.72674013284992    1.34245874447760
O           0.41820474518223   -0.29689168037302    2.23818220435961
H           0.51369795702449   -1.00210476262991    2.87993246528702
O           1.13827005800259   -3.29940522511494   -1.95206975770594
H           0.42977687219188   -2.90040546536666   -2.47492883867741
H           0.93844649102394   -3.04262837271395   -1.04017093280130
O          -2.28870916034823   -0.73178833827648   -0.56348505258358
H          -2.19287282701915   -1.58811008360975   -0.13927784929751
H          -1.64657553051293   -0.75614413956893   -1.31198799242616
O          -0.38738021978861    3.13125314926548    0.13962846584223
H           0.45890428894275    3.02625056686163    0.62699908253947
H          -0.21260440576716    2.67410880924176   -0.69485885694240
O           1.79924541357774    1.93752260845002    1.13727318881461
H           1.57243925231021    1.29603357586100    1.82029224519970
H           1.60067136056273    1.47977427937327    0.29989013037366
N          -1.65604717934837    1.13223779083436    1.25102007141690
H          -1.94854912045755    0.47219675936745    0.48101138986098
H          -1.20508467892180    2.00404625678096    0.80006503284675
H          -2.44648239825152    1.38583310646403    1.83404571644670
H          -0.91441678797381    0.64328180607469    1.79642791404276
