    26
        -50.47250312  Gyration_radius:  2.48731719587 Dipole_moment: 2.881
 S          -1.12153398375454   -0.13265295888234    1.96678095250063
O          -2.39129106384396   -0.04196546857770    1.27163243096287
O          -0.60458025948811   -1.49560361148281    1.98608509633656
O          -0.13298841045649    0.81592416192999    1.49082088472438
O          -1.41548242922377    0.25689014855380    3.47390962279005
H          -2.16353407336637   -0.29864954270398    3.66437999476236
H          -0.54842938932558    1.79084046086081    0.13669277418707
O           1.53117409779730    1.33035285842610   -1.86447158676993
H           1.86376893020159    1.98339180853725   -2.48043335408420
O          -2.12527562308499   -0.22284617897649   -1.29341950927810
H          -2.95996759022354   -0.53120639459617   -1.64913332813173
H          -2.24321716057531   -0.19124426162129   -0.30786577173255
O           0.33618016081164   -1.14530102777284   -2.04047870712403
H           0.81997766638800   -0.30856486615232   -2.16245088175457
H          -0.58347706613869   -0.88430980742417   -1.84397852497560
O          -0.70137007924248    2.11299444343711   -0.77437897405846
H           0.69001498225814    1.70990562064328   -1.47609377334730
H          -1.35925035909602    1.50278570371341   -1.13871306003222
O           2.42227371820437    0.61533011115718    0.64347201952160
H           1.61259189616189    0.87342729382413    1.12160460204461
H           2.29853929728437    0.96089048182837   -0.25954517765145
N           1.37094821638210   -1.76955305882466    0.30737790099621
H           0.57781144341134   -1.73584262489688    1.01158785596365
H           1.90490502025394   -2.62565934959612    0.40133148847679
H           0.95756964286439   -1.66640329865908   -0.66578141256385
H           1.96464240579882   -0.90293064275181    0.48106841823492
