    26
        -50.46047175  Gyration_radius:  2.37982383439 Dipole_moment: 7.198
 S           0.11648924713606   -0.33612058218073   -1.96979532015291
O           1.48373070539128   -0.77471801995776   -2.12303563218237
O          -0.86086940088601   -0.85182895921155   -2.87727672671794
O          -0.33068809072002   -0.88466635149021   -0.51882755134593
O           0.02494173392590    1.13246579281016   -1.81785707760553
H           0.46185255742338    1.72469493574919   -0.49593688773129
H           0.45437857972669   -1.27490293632603   -0.08583052087846
O           0.67759638461729    2.08654134456801    0.42451594756842
H           0.79055005327194    3.03144253877055    0.30978054192816
O           2.77816496544265    0.24168654212892   -0.06159240142080
H           2.43660345237122   -0.05156865862235   -0.93856236746833
H           2.23732757251977    1.00067095680749    0.19793518976313
O          -0.80757245172619   -1.56198419354315    2.21543120011338
H           0.14236112583470   -1.63310476659099    2.01783136381235
H          -1.23466150692328   -2.18982699435902    1.62715617128780
O          -2.45735188211772    0.70044391372359   -1.22139525727749
H          -1.60424302188621    1.04484014663591   -1.57158281214319
H          -2.52252102161580   -0.14361439852816   -1.68381818794283
O           1.66498510642283   -1.82978529823939    1.00005995031274
H           2.10527971073973   -2.58500599399899    0.60626845540291
H           2.21581776919428   -1.03391598717332    0.73789524798117
N          -1.56993639417795    0.84612370685877    1.26836822683770
H          -1.29289557302778   -0.08949620616403    1.66565773377866
H          -0.69434521295910    1.39500912010160    1.09528150062396
H          -2.01557928593209    0.69636184441214    0.30717181863736
H          -2.19941514205526    1.34025850379806    1.89215740484021
