    26
        -50.46876993  Gyration_radius:  2.5140523746 Dipole_moment: 1.665
 S           0.87820647462574    1.69291075606091    0.29744947329968
O          -0.11156009221082    2.06239564452974   -0.70881223082591
O           0.27705782268478    0.95091214075354    1.39193285589120
O           2.04094213191599    1.05451067572963   -0.28132931761957
O           1.38961125970035    3.04649808585063    0.94382993694589
H           1.97056612020192    3.40636946598094    0.28072692744096
H           2.43162886067480   -0.23638106112067    0.79927947512218
O           2.30780496348324   -0.84885723774677    1.54844837312688
H           1.63273865091934   -0.40538359415572    2.07524425803312
O           1.03860828524066   -2.98961456295308    0.58464151345489
H           1.52532679833431   -2.22509312665589    0.97571571414062
H           1.70804402586133   -3.58904500634972    0.25337656365764
O          -0.99562016710741   -2.06906727700960   -0.88896824797108
H          -0.52250275113079   -1.45449018308918   -1.49199299197050
H          -0.29060869578662   -2.52290262896397   -0.37773088392006
O           0.38915814180282   -0.13542321353865   -2.13120951668178
H           0.10126018749184    0.71926028780333   -1.76353817706984
H           1.31738591604556   -0.18010380016282   -1.87893449019545
O          -2.73444572914316    1.71111613085467   -0.80772317844789
H          -1.79936297769256    2.00769044939474   -0.75877122721264
H          -2.90623488390977    1.54549735521743   -1.73704605075041
N          -1.95239235206205   -0.31733568754698    0.75537157326927
H          -1.08755484992790    0.16624600184998    1.10945070912160
H          -2.47120334980621    0.39619614831365    0.19198461162512
H          -1.62510821278283   -1.11822314219732    0.09391081929880
H          -2.51174560746043   -0.66768259088928    1.52469351828210
