    26
        -50.45094469  Gyration_radius:  2.44690144457 Dipole_moment: 4.021
 S          -1.49091350785423    0.36017922826358    1.04043156921901
O          -0.38268986524974    0.19842965890380    1.94737607322246
O          -2.44509892768970    1.35083619127752    1.41956214333587
O          -0.92057171816637    0.67017594334955   -0.37008236033469
O          -2.19428635276516   -0.97716491574828    0.81036601395043
H          -1.49989375222038   -1.65147670375108    0.47146514915115
H          -0.07513835489145    1.22167907029865   -0.25946208862013
O          -0.48730866989647   -2.58198804644846   -0.15931431389362
H          -0.91137445142071   -3.43065885041113   -0.30045950804602
O           2.07035312606885    0.07524804434608   -1.77411014387669
H           2.09670643071848   -0.31864429391046   -0.88168514768253
H           1.94154989359941    1.01702302165777   -1.63667295724775
O          -0.43349578137252    3.02880644771093    2.11471066018795
H          -0.16796084815824    2.56957389555929    2.91611245529719
H          -1.29689172134788    2.64719037422757    1.87953440852629
O           1.70224579050089   -0.94975746670604    0.75346092204023
H           1.00118838746827   -0.54809216451256    1.30125348534231
H           1.34337114554917   -1.80911523872173    0.50881207821347
O           1.14904037678323    2.03909703123067    0.21966678765772
H           1.68681395929661    1.40546638651553    0.70920972124355
H           0.67710166715040    2.58325863257315    0.89463177254205
N          -0.27889703546755   -1.37386797600532   -2.42985016849718
H          -0.33172201977699   -1.83683494118061   -3.32790830533383
H          -0.99384115337151   -0.65757301827354   -2.38785672984632
H          -0.38136358866799   -2.14125257451100   -1.09145369638721
H           0.62307700119232   -0.89053775570813   -2.36773782018370
