    26
        -50.46157498  Gyration_radius:  2.39657941077 Dipole_moment: 7.414
 S           0.94036471911504    0.37689613155984    1.54979470419341
O           1.92011130034082   -0.63937046370050    1.85208697817805
O           0.05418686743268    0.73202716826078    2.63211117480915
O           1.67213054391942    1.68918137763723    1.11183208101400
O           0.14695922640068   -0.01489102960755    0.36523145603095
H          -0.32201481904320   -1.51820185989593   -0.17400551915087
H           2.10762553864181    1.43373170534506    0.26011117285101
O          -0.81575260749408   -2.16191832495642   -0.73206396024896
H          -0.14837223660987   -2.51007485210598   -1.32739778609802
O           2.24224601864647   -1.75525916211115   -0.46598673036038
H           3.08288459386591   -2.21462303840762   -0.41632784821487
H           2.07944782556924   -1.40934632682098    0.44927168248949
O          -2.37205473871774    0.53607587477420    1.75638178929218
H          -2.71180284730270   -0.12397985730538    2.36374850932775
H          -1.43114834465950    0.68550943360017    2.05455310481144
O           2.43780149591366    0.81770685485306   -1.23505227541222
H           2.38633180284433   -0.15080288009605   -1.07233848666111
H           1.66480615019261    1.04296322784891   -1.76391392735520
O          -0.44783206320819    1.69872013662551   -1.42706720597352
H          -0.40568146032054    2.57807242019435   -1.04735995519753
H          -0.11055974946988    1.08585368624129   -0.71454969169945
N          -2.42632833919294   -0.03794703808699   -0.82684116715435
H          -1.83752804591992    0.70856289255773   -1.25938648623980
H          -3.36351215198387   -0.06808486958611   -1.21274844486750
H          -1.91139646075625   -0.94957531260601   -0.94302900853746
H          -2.43091222821589    0.16877409594625    0.22294585018708
