    26
        -50.45659737  Gyration_radius:  2.51819408713 Dipole_moment: 4.145
 S           0.17356924313187    0.55802586081399   -2.24996350545128
O          -0.84787005669353   -0.41492525421520   -1.90155422228372
O           0.84470609242049    0.34343100016692   -3.49226646414035
O          -0.57431042428795    1.97377691775598   -2.39996405684684
O           1.08340191988151    0.73332237067657   -1.10892248280033
H           1.65890375421559    1.29784923813952    0.41776856286266
H          -0.30340361586358    2.20485488538699   -3.28198631426604
O           1.98209202155712    1.37116752552693    1.33606954761282
H           2.24542199525088    2.28383675654174    1.45969424749927
O          -2.26467341187406   -1.85419696541827   -0.08774510409548
H          -2.80706404059756   -1.11497843528543    0.20214491991048
H          -1.78439899385418   -1.52368815547686   -0.86570228529767
O          -0.34567998164657   -1.99799145724892    1.73018335131810
H          -1.10177435355020   -2.09255506990787    1.09895686849301
H          -0.47521334975898   -1.10587903712423    2.15260305786184
O          -1.71843332693488    1.17840274035085    0.01580455748480
H          -1.68640373282534    2.06446239624878   -0.34847374611582
H          -1.38108421482291    0.60114454367708   -0.69764099499058
O          -0.47598677777213    0.53914643929608    2.36035632887097
H           0.42152728992460    0.86118521454442    2.17629499082786
H          -1.01477249713238    0.83101296225078    1.60063143950313
N           1.69757787840406   -1.36375300176111    0.36430422298323
H           2.34008475846749   -0.91308938510732    1.01439320661916
H           1.39347936749480   -0.61756922155903   -0.31956966464732
H           2.15083398182971   -2.12735168871061   -0.12519902503496
H           0.78947048500377   -1.71564116958665    0.94978256416209
