    26
        -50.44660818  Gyration_radius:  2.68466307319 Dipole_moment: 8.729
 S           1.00537392476978   -2.55167061271777   -0.97970660406101
O          -0.23314699128787   -3.04043576272860   -0.36545323998808
O           1.88658835362306   -3.54259054324923   -1.48724411931502
O           0.54305290128740   -1.64872593958108   -2.20481383704717
O           1.67169833411613   -1.59932304701812   -0.04806159148349
H           1.68757454710313   -0.11831814023798   -0.52571063976753
H          -0.27299424912980   -1.21223548448182   -1.93160724597060
O           1.56185938400424    0.82077111834563   -0.85113722548566
H           2.00557835990163    0.85820280855706   -1.69999854769803
O           0.42411385360425    2.51776468039818    0.93687224511135
H           0.92090701916084    1.94980965073080    0.31501752845328
H           1.05276121366785    3.14739850893783    1.29183608803041
O          -1.75860831164273    2.96907546473324   -0.79390194653751
H          -2.54216306137850    3.20723237064226   -0.29639090348407
H          -1.01707138733142    2.97613673480932   -0.16642167019587
O          -1.42297811011773    0.48925099533169    1.52400015619319
H          -0.82444293418162    1.24588028013781    1.60523259599239
H          -1.51464383957378    0.35531685828522    0.55384909806228
O          -1.10904877970315    0.33553608686496   -1.13999917123810
H          -1.55419025324521    1.16942875908498   -1.36687888279351
H          -0.16083082187146    0.57339105909712   -1.09447383909117
N          -0.08451319931353   -1.77610370151655    1.80385593698002
H          -0.40849888024755   -2.41628363647854    0.99390848212623
H           0.85357630573790   -1.55016964992272    1.39313355082266
H          -0.67729129482828   -0.90106456453113    1.84095923896417
H          -0.03266210299424   -2.25827431342087    2.69313454334368
