    26
        -50.46928868  Gyration_radius:  2.43243521326 Dipole_moment: 3.522
 S          -1.86058489639472   -0.00482136613544    0.90068852324913
O          -2.08384931653779   -1.28895712747561    0.26050468396956
O          -2.29576332651855    1.12018980652347    0.10610942652683
O          -2.72477318798424    0.01441470036827    2.23062565278078
O          -0.47673666347634    0.12073907618657    1.35785552220923
H           0.15228546040590   -1.35657287965826    0.93024854189586
H          -3.60691463248351    0.20859507651676    1.92920154950676
O           0.52512811355365   -2.16633506409647    0.51358176762913
H          -0.25489308526958   -2.70424725442381    0.34781306187844
O           2.30597571763734   -0.01344511705552    1.70055852432132
H           1.37387837589010    0.20806180927503    1.83441801602704
H           2.33662271227827   -0.97195486862398    1.64493912687504
O           0.13058374209073    2.46788363615276    0.16184565428426
H          -0.71340105052704    2.74537724995136   -0.20249450178340
H          -0.09044102310401    1.68973704221455    0.70280851371909
O           2.38746239839574    1.28191628061048   -0.67218345702407
H           1.66880240093373    1.91913833981010   -0.48610924415476
H           2.60511888453748    0.91108021455099    0.20805351573543
O          -1.44971702670731   -0.23182760704153   -2.05330010796464
H          -1.78007844664946   -0.85279415150659   -1.37188742111870
H          -1.75004097307406    0.61747409079812   -1.69925236795056
N           1.13212653499882   -0.75243388872175   -1.69017075276021
H           0.15197177269567   -0.46491868873170   -1.96164552572171
H           1.02612819005330   -1.41662974290017   -0.88271365435154
H           1.60681991488231   -1.19347707937503   -2.47005982082327
H           1.68428940033564    0.11380753275064   -1.33943521697365
