    26
        -50.46386687  Gyration_radius:  2.48050861381 Dipole_moment: 2.560
 S           0.30696631716675   -1.69945678714183    1.10764873854002
O           0.41893841286400   -1.66533299490946   -0.35006812086082
O           0.47460660328034   -2.98301552801313    1.70224195909727
O           1.57404375171518   -0.82965133227378    1.62698213708918
O          -0.85374281248704   -0.93197793325139    1.54108813204056
H          -1.94266177001127   -1.03675340290860    0.20831443901429
H           2.00676305262368   -1.51920867394308    2.11761789789290
O          -2.36855713537734   -1.00266920520352   -0.66882796674683
H          -1.83030837745714   -1.56793846705052   -1.22759717694894
O           1.50523254903447    1.93903354151184    1.06434013689077
H           0.60394970113152    2.09524642063624    1.39826786265843
H           1.77590804448056    1.09265769949926    1.44283745822728
O          -1.93840346241189    1.63069939149947   -1.01818711984908
H          -2.31578191384515    0.72518717183304   -1.00558470831022
H          -1.86278496627659    1.88283692180135   -0.08365076975539
O           1.88504219927095   -1.13132592000176   -2.65833516013790
H           1.45618395651872   -1.54271442713856   -1.89271391194129
H           2.23734743610170   -1.84594639152258   -3.18958352656944
O          -1.15659681151526    1.66371951199650    1.66273868779574
H          -1.70306626847190    1.85296557228472    2.42665312080938
H          -1.04881912244704    0.68173710201433    1.64343923571493
N           0.56453808490750    0.85498398733707   -1.18972918855167
H          -0.41448114674729    1.25929776556762   -1.30002819953249
H           1.07978432928837    0.79785114274541   -2.06669443072707
H           1.07932790119565    1.40724210182396   -0.46116999307258
H           0.46657146747895   -0.12746729719337   -0.82999950278030
