    26
        -50.45963868  Gyration_radius:  2.42064823273 Dipole_moment: 6.953
 S          -0.41442252730857   -1.61194704527350    1.00308723616443
O          -1.51930222619081   -1.23362967295299    0.12123011994281
O          -0.32711056259724   -3.02875514426397    1.22554991803964
O           0.89703310428315   -1.20005908628713    0.14548069810670
O          -0.34880182484653   -0.77791906539929    2.18021072633838
H           0.32608326014917    0.65902869086431    2.12346394746425
H           0.78733846560907   -1.86263262113991   -0.57332300791315
O           0.78858184671829    1.53026897155119    2.00174568711619
H           1.71738262245175    1.34794719503839    2.15535256920757
O           2.61238028068496    0.55946003876537   -1.00225829505930
H           2.12673859125226   -0.10596162517901   -0.47892305352440
H           2.91119627491114    0.11039301158762   -1.79476788606232
O          -1.97963579362766    1.34744774689043    0.92201424459524
H          -1.81022149039153    1.49791723741575    1.85345618815138
H          -1.90631286342742    0.38583792527679    0.80292160876825
O           0.01025506200015   -3.13591745146185   -1.35912618917402
H          -0.84203402022116   -2.81428578597275   -1.66700305623402
H          -0.15221168177948   -3.44116718044003   -0.44118046811353
O          -1.40519925624348    0.59060970001570   -1.74098644970730
H          -1.41407450766805   -0.17827189790268   -1.11877423274123
H          -2.25349718348985    1.01685546315218   -1.59035745522944
N           0.43889566487315    2.09288195008516   -0.56526283158252
H           0.43307614571865    1.92862386285330    0.48534779715233
H          -0.35390939096196    1.53206355150901   -1.00713032832265
H           0.33672158195591    3.08093966214072   -0.76857576006063
H           1.34105044814697    1.71027156912600   -0.91219172733146
