    26
        -50.46977833  Gyration_radius:  2.43885738107 Dipole_moment: 5.761
 S           1.80134664516346    0.27562629267472   -0.42709855401018
O           0.80541113466449    0.88006993166600   -1.30811166560340
O           2.34043119941979    1.18476288329469    0.54496206808420
O           1.28907216891052   -0.96936051297403    0.13816963204405
O           3.01291313421730   -0.15498394570929   -1.35265942448220
H           3.58743704697939    0.59289933138085   -1.23496799639908
H           0.25156682379322   -0.79568574794719    1.40458000491502
O          -0.40996397934859   -0.67268427803103    2.12298084660709
H          -0.16055191973468   -1.26811348507793    2.83102059921408
O          -2.45716866928410    0.13815970741195    0.44172193179896
H          -1.92357155330737   -0.20945948061778    1.17386363038205
H          -2.13741374128849    1.07321766171301    0.32400596972641
O           0.18679892220040   -2.88264701765370   -1.29669313019545
H           0.74432641804921   -2.24594344127246   -0.79532883926842
H           0.06357742911121   -3.64179560184349   -0.72479880973007
O          -1.13389976592388    2.36529270438495    0.00244956654983
H          -0.68861614259389    2.48983808980278    0.86833691911083
H          -0.43275388294827    2.03812302771425   -0.58160012296366
O           0.36402014759822    2.04227872561852    2.19992071196438
H           0.01330730443879    1.17083333985809    2.43240017996279
H           1.18194283766608    1.86642903836469    1.70301337530918
N          -1.27746202711915   -0.66907370686223   -1.71833813347991
H          -1.79570133285513   -0.50770281141264   -2.57469067742462
H          -0.43344278482060   -0.03444323985116   -1.66746757809255
H          -1.87151849955592   -0.42119958563869   -0.84305646512486
H          -0.92008691342641   -1.64443786899234   -1.66261403889392
