    26
        -50.47186304  Gyration_radius:  2.45012886308 Dipole_moment: 2.265
 S          -0.02048586175517    0.81073766911364    0.23180946196675
O           0.66481230222609    2.08006395337197   -0.33564321385602
O           0.03938137673109    0.84042596943915    1.68832734392638
O          -1.37243867892253    0.80359236494703   -0.27000577829035
O           0.74854715067734   -0.34740017327502   -0.27787098085860
O          -2.27026761973397   -0.82537138102730   -2.18220898369834
H          -2.26129694075964   -0.06877736658744   -1.56594789695716
H          -1.49330884097038   -0.64412343795277   -2.74677656009612
O          -2.00343327587380   -0.85059281485122    1.92817774435875
H          -2.72994684929919   -0.29110290003680    1.64048147669483
H          -1.24025301312711   -0.23797888736909    2.00109051464234
O           2.49030147141495   -0.14069027447286    1.85512299669487
H           2.38524079104753   -0.63129794326957    1.03197871504563
H           1.58386216386099    0.16796834269919    2.05535831419680
O           0.18171584168232    0.11238068350181   -2.86160230716186
H           0.17881595966359    1.06789494402288   -2.94412139465947
H           0.51185473177780   -0.06858351080164   -1.96266516556738
O           2.93071144769798    2.27535632822670    0.89727141883643
H           2.96648683552194    1.36882238599524    1.29685587042244
H           1.56708132466641    2.19347928762243    0.08741858405357
H           2.82999057347520    2.88775833843284    1.62925286459889
N          -1.14238062470982   -2.14787235921896   -0.23757870238342
H          -1.71029914430319   -1.79507153687468   -1.07961236578709
H          -0.98662767413670   -3.14981726192056   -0.24809983032417
H          -0.24472453853873   -1.59343319432895   -0.28209667093345
H          -1.60333887831094   -1.81636724540657    0.65108457510857
