    26
        -50.46197629  Gyration_radius:  2.55963908915 Dipole_moment: 8.581
 S           0.45258187744049   -0.46651288546278    1.57000485461243
O           1.55240456302276    0.44257142568542    1.83540485157219
O          -0.69833650475619    0.18406959092379    0.98154298507075
O           0.88685684892434   -1.60738235711961    0.75307756635203
O          -0.03215600329628   -1.05995000267473    2.94322988996615
H           0.78022346122657   -1.47352710124097    3.29023222205161
H           0.71924954221294   -1.28277653807759   -0.74233808461042
O           0.65929413337906   -1.06135414629757   -1.72148736373603
H           0.87628019980076   -1.87682566645772   -2.17689101971667
O          -0.57368072238505    2.73463391319809   -1.41905958623084
H          -0.21223930195837    3.36563296624440   -2.04374901393806
H           0.21251511226905    2.33554818592914   -0.95834751604788
O           1.58122178533878    1.46916487252585   -0.61908379047376
H           1.51980447859155    0.63675234563325   -1.10197527975804
H           1.61565147193318    1.22117429038243    0.32712025895523
O          -3.02587139412902   -0.40490288810455    0.09603412762060
H          -3.60925113717565    0.22124598443746    0.52926057617299
H          -2.15802133120597   -0.31784258658062    0.57183313286310
O           2.51416170226554   -1.82449256567763    2.93589797023294
H           2.63704170145918   -0.88095194681172    2.75220052884683
H           2.25533254070222   -2.19732405074042    2.08232620760772
N          -1.60613757974989    0.36745189082417   -2.00387434787376
H          -2.27081831510871    0.07371981342589   -1.23136866496137
H          -0.75597025062012   -0.24357832977604   -1.92622844163696
H          -2.03567322029014    0.28840762533729   -2.91907315911118
H          -1.28446361788316    1.35704815049199   -1.80468891382201
