    26
        -50.45912112  Gyration_radius:  2.68254887388 Dipole_moment: 5.086
 S           0.49497589091281   -2.80530388487018    0.18940748187173
O           1.21372023701541   -2.26769864143875   -0.95962995953929
O           0.19662427012773   -4.19881450648668    0.12404435455021
O           1.50655395873859   -2.63657367496921    1.44281229339048
O          -0.62903856866096   -1.93031370232251    0.53176864594739
H           0.27273059848740   -0.73106164757572    1.02455615576116
H           1.85275226211923   -3.52108237498888    1.48995460524042
O           0.77551486964284    0.04924775802626    1.37884225576254
H           1.45662293441793   -0.34325007961032    1.92897998606896
O          -0.62873914194515    3.43161422987327   -0.17621008537198
H          -0.60114032987290    4.26987982027536    0.28659750044661
H          -1.11957309716120    2.81434224317919    0.38809660328134
O          -2.02652398444082   -0.14779802292187   -0.87781383434003
H          -2.04218933048484    0.55644557874397   -0.21000581320687
H          -1.72239062544036   -0.93948931963731   -0.39114159808922
O           1.50395530787763    1.79147776154628   -0.62410375500795
H           1.41153754812848    1.24120390048925    0.17463872157911
H           0.82847668017837    2.49129570917515   -0.54130512651539
O          -1.58136976955520    1.39443251635396    1.43660991268981
H          -0.71076883772948    0.95835452171328    1.52992707119553
H          -2.16352824272598    0.97404431829775    2.07155230635152
N           0.34242735695001   -0.08108478562557   -2.07330960304459
H           0.41894682868766   -0.07843328492424   -3.08362950915549
H           0.88206375465054    0.72086690893928   -1.63330392073906
H          -0.66413233736326   -0.02313602863630   -1.75559752709066
H           0.73249176751161   -0.98916529263506   -1.67173715208576
