    26
        -50.47006550  Gyration_radius:  2.43522845744 Dipole_moment: 3.768
 S           1.33452584316155   -1.50129178801996   -0.88271216499653
O           1.92596330809537   -2.24865582328566    0.19897030836728
O          -0.01358921989934   -1.91141167428791   -1.21775786767455
O           1.43263975406184   -0.05299834677649   -0.71384294558714
O           2.23510702742558   -1.81214298310051   -2.16027747028387
H           2.49370863379868   -2.71092853520468   -1.98649131096966
H           1.66634286423545    0.60929275335661    0.73623445304822
O           1.69377007690789    1.08590142375649    1.60620376382008
H           2.60107349022850    1.36975277116594    1.72315719269367
O          -2.10875976626857   -0.45269210015439   -1.49619290913944
H          -1.29890321499686   -1.02484886095732   -1.39588786665587
H          -2.72643161327606   -0.96825245889885   -2.01624336486205
O           0.09128285292647   -1.26927210148645    1.85259982049119
H           0.67362978322700   -1.78510272877337    1.26656820502529
H           0.64645210842238   -0.55818311257112    2.19376102959571
O          -0.35944203263626    1.64598953336976   -1.66499285786371
H          -1.10168255595438    1.04002440961827   -1.83112569236582
H           0.40051498207485    1.05072764246423   -1.48409441565189
O          -2.17766773168863   -0.01884808526510    1.19418990523495
H          -1.46623841016546   -0.62672719334602    1.49384034666811
H          -2.32137105649080   -0.23861724320594    0.25384188409810
N          -0.72734304846836    2.11063135456887    0.88454795289259
H          -0.59596695890688    2.08359401458289   -0.17924884339559
H           0.19194802227823    1.89452262562532    1.31139835526533
H          -1.09074258315301    2.99986614805456    1.20583868907389
H          -1.39882054494040    1.28967036876994    1.10771580317120
