    26
        -50.47460343  Gyration_radius:  2.41946817225 Dipole_moment: 1.177
 S           0.42511927325787   -1.90775193292584    0.38282941251699
O          -0.96008885432809   -1.93410584466870    0.82494233119697
O           0.57470303829547   -1.61409703404252   -1.02171518549364
O           1.24137050601950   -1.03949456015742    1.22919774133920
O           0.97708175032309   -3.37550020670000    0.59693014574795
H           0.65972291327619   -3.57636827347960    1.47074309949803
H           1.80941190179663    0.40497201793124    0.72906656211793
O           2.09266170613068    1.31063091222867    0.45109453798007
H           2.91452363195098    1.48310147057400    0.91262406969682
O          -0.45299972557322    2.27584962641670    0.96640614797504
H          -0.68474816392581    1.60594448745018    1.65039210167201
H           0.50613721622726    2.17266756660765    0.84371486884165
O          -0.74591663798496    0.15694445570295    2.55598607802496
H          -1.41927112375331   -0.45792956317447    2.24532926513083
H           0.08516599450216   -0.25025561995834    2.24753499438810
O           1.26305195217777    0.72399786940866   -2.09753367330377
H           1.12301406472823   -0.21423713551623   -1.85479393176341
H           1.76445422142744    1.09027369563284   -1.35018104832590
O          -2.10239723628555   -1.06083910103695   -1.35468270692258
H          -1.82737773774374   -1.40804350703100   -0.47599390958299
H          -1.47336043783107   -1.47130908024450   -1.95736811073458
N          -1.17711170159710    1.43346516817026   -1.41014840108518
H          -1.66847447760318    0.49831683644870   -1.35930817015485
H          -0.21300526482937    1.24461565011855   -1.82467337552549
H          -1.70392005384600    2.09133769645355   -1.97315431792380
H          -1.00774674481617    1.81781441579305   -0.42723852531773
