    26
        -50.47314777  Gyration_radius:  2.38311951119 Dipole_moment: 3.677
 S           1.46285698673835    0.55479201223585   -0.39045123148859
O           1.31490376135045    1.31929342173057   -1.61473470781657
O           2.80593830636135    0.42692086415817    0.10686903510317
O           0.62136989423024    1.37534951491423    0.67772835345590
O           0.77531066140401   -0.74206543888571   -0.48997898806404
O          -1.46388182486952   -0.89086072600905    0.91287022813275
H          -1.18594413509691   -0.86972660425276    1.83377701439443
H          -0.62279910913503   -0.88156530886287    0.40387332995870
O           2.43179794771899   -1.71563544716873    1.54370402168364
H           2.76655737331069   -0.94492612461227    1.02737619272154
H           1.97647544129616   -2.25631003110151    0.89241947367486
O          -2.11613853532255    1.59652661506617    0.17958137561089
H          -1.30132700391422    1.98224953714968    0.52732721371007
H          -2.09706598082792    0.66628655283873    0.50472771395045
O          -1.17194269899063   -1.56711276138373   -2.10860389829070
H          -1.78525307593731   -1.87536394705441   -1.43492348900505
H          -0.32170051151565   -1.43908364033815   -1.63912640319556
O           0.66026991499367   -0.23439531908010    2.74418815789377
H           0.64068819450143    0.82116587309069    1.49832122596535
H           1.31909619041032   -0.89267727856518    2.37867900220659
H           1.07790030200418    0.15202886455412    3.51615645077462
N          -1.17723088250114    1.09619897738379   -2.23933509823909
H          -1.48598650930577    1.62332331361731   -3.04858506279701
H          -1.68523053589238    1.38845815845748   -1.35401951671806
H          -1.31059878683653    0.06128730003747   -2.37041864288526
H          -0.12806538417635    1.24584163199967   -2.05742175072307
