    26
        -50.47155234  Gyration_radius:  2.43056610904 Dipole_moment: 5.668
 S           1.50894620311177    0.73433182116878    0.50043977762915
O           1.95972510202565    0.37192445902294   -0.83589884444402
O           2.40985154066358    1.58872252429116    1.21849949180714
O           0.16097892112241    1.59387568603833    0.24463434244172
O           1.02769755047628   -0.41840929497048    1.24633645806781
H           0.52031213978833   -1.99489480415621    0.73762720947747
H           0.57096793677401    2.36782022402605   -0.20115097797329
O          -0.01245514889885   -2.65800333188975    0.25248035769091
H           0.15349107651050   -2.44523944489119   -0.68261669925077
O           0.45576293189700   -1.30297763424970   -2.08049943195267
H           0.90083513451433   -1.52296898303237   -2.90009496172202
H           1.06889361965716   -0.68040137234605   -1.59676666016935
O          -1.15041082485043    0.31162318594215    2.49899795182431
H          -0.25662560028665    0.03259459662542    2.18988694212178
H          -1.21348117856918    1.23850086333063    2.25601307028553
O           1.94451272466635    3.15870432197990   -0.82980040475553
H           2.25041534651912    2.52453154266485   -1.48676028669337
H           2.38686486413787    2.88168573843182   -0.00452255706033
O          -1.65771778500708    0.24308995556725   -1.34287794741070
H          -1.02083549200121   -0.32354137525920   -1.81707658354504
H          -1.10451701630114    0.86104141923700   -0.83516002718984
N          -2.21967876331986   -1.32726633741953    0.70122520244396
H          -3.11100630491836   -1.78788600352873    0.84158426105702
H          -2.20474894855991   -0.71324611661794   -0.16224184761870
H          -1.95461866904270   -0.71171760988410    1.51751086626931
H          -1.41315936012305   -2.02189400990935    0.57023128862376
