    26
        -50.45607276  Gyration_radius:  2.38714238373 Dipole_moment: 9.528
 S           0.12783619268949   -1.01506821220588   -1.84966715444563
O           0.71814263634322   -0.03087124028429   -2.72515827618550
O           0.43618095540929   -2.39249342145586   -2.09987818632168
O           0.71525755549891   -0.68953396733964   -0.38258341297382
O          -1.32338107579070   -0.79453009220699   -1.65483424213383
H          -1.56799589946727    0.37461237391338   -0.75862149665659
H           1.48452516810105   -0.09835966116315   -0.56278061902439
O          -1.79151070195945    1.09875599266759   -0.07557886805459
H          -2.61242718114490    1.48374804024850   -0.38660415603601
O           0.49139177179810    2.47604082286162    0.37490282764822
H           0.22141878703887    3.35944941142359    0.63002444000665
H          -0.32126638297769    1.99145798087869    0.11602181293474
O          -1.14481719961045   -2.71129696026415    0.09234750634739
H          -0.35861396163427   -3.08174203719946   -0.33240939133025
H          -1.45734720632464   -2.09795290160212   -0.60978564250028
O           2.46226258088564    1.08880371274652   -1.12323824798335
H           1.97827062530812    1.85734119656089   -0.79376361012685
H           2.02166832669007    0.83472402587514   -1.96185129777407
O           1.39090863458061    0.53514862640465    2.09807886156233
H           1.17684059604259    1.30169053304274    1.53036213750531
H           2.09608953032464    0.07085342833620    1.64052053167668
N          -0.95747364887118   -0.71782912190738    1.79712833305259
H           0.01942701566384   -0.34720571804646    1.95913315150274
H          -1.44134250512859   -0.89996433382070    2.66993693389735
H          -1.44580523719850    0.00078113117378    1.22755539463376
H          -0.91823935634556   -1.59655963868591    1.18074266079996
