    26
        -50.44209433  Gyration_radius:  2.49261927835 Dipole_moment: 5.254
 S           1.64705656206687   -0.54400106038591    1.65617814328024
O           2.33899849860231   -0.07644669378223    0.47896295333721
O           2.36818050099899   -1.37786701753987    2.54111267946784
O           1.05489950209490    0.68568595008876    2.39134021774972
O           0.36370928237643   -1.29278753360686    1.17783641488040
H          -0.43596773557862   -0.69966797226312    1.32678269161454
H           1.11180854800814    1.46149113962999    1.72418704098698
O          -1.17311116976914    1.76533207613616   -0.57729278376649
H          -1.79784674590336    2.38182490666600   -0.95966092521266
O           1.79646180134012   -1.05189085208912   -1.96803532597900
H           2.04158349961179   -0.68804617684423   -1.09764951520912
H           2.28091387348669   -1.87385063018783   -2.05597432971306
O          -1.63527131776689    0.28650544098861    1.54921845229952
H          -1.34717189221725    0.78542735142006    2.31849332942537
H          -1.55098734363805    0.89266224585097    0.76817214984744
O           1.20951202277016    2.34425400458242    0.50001331899209
H           1.84065846098213    1.74431797906266    0.07450862705720
H           0.35801695694144    2.24036061701573    0.02115217362528
O          -2.04963753380644   -2.11458096083317   -0.18997098857024
H          -2.41299711559984   -1.51228648505179    0.46592011665891
H          -1.18751563903161   -2.37802063389967    0.14723076350848
N          -0.96845971249704   -0.24670820962333   -2.12927576268360
H          -1.32717703355978   -0.18137004043149   -3.07278822377122
H          -1.07411663941717    0.96761145030815   -1.25997654363829
H          -1.46421774918458   -0.99754732067282   -1.64720631515292
H           0.01267811872645   -0.52040155456274   -2.18327835914061
