    26
        -50.43777494  Gyration_radius:  2.48075497002 Dipole_moment: 4.222
 S          -2.07073603129534   -0.91313961328642    0.39849282660662
O          -2.38960052815845   -0.16365637965636   -0.79320746951501
O          -3.06749988120805   -1.72608716223523    0.98202471146174
O          -0.80273083181037   -1.76689721096120    0.08861601949575
O          -1.53063973113225    0.09213227478395    1.45596049226963
H          -1.28956699191758    0.92404927237490    0.93886412658649
H          -0.51129062587251   -1.51652547575870   -0.85007624074780
O           1.11917828912106    1.13046909546040   -1.28884424334875
H           1.91269517164506    1.52031661331259   -1.65678641084570
O           0.37686014712849    1.96480661928439    2.61374275318142
H          -0.00068398014371    2.53301134637262    1.93598383869699
H          -0.33512573456501    1.38771172003089    2.90400159827343
O          -0.26030649561453   -0.92255881558768   -2.25767582432446
H          -1.16709579282144   -0.58712802005503   -2.29668735453884
H           0.30638467758977   -0.14283389935945   -2.04874307398762
O          -1.06599800884069    2.09224476965033   -0.07855559436154
H          -0.23061610644789    1.89459147260930   -0.55696642397395
H          -1.77331833389725    1.74364936004725   -0.63887704246242
O           1.94359116872886   -2.44437912227715   -0.95000136078285
H           1.49603785906289   -2.17719856357796   -1.75740239838420
H           1.27826433769710   -2.87530699387173   -0.40907046779467
N           1.64324790201934   -0.05074242633278    0.93727091153957
H           1.40191914213151    0.64088233577318   -0.42085382507101
H           1.50091223107596    0.62022367179368    1.69045834433644
H           0.95602191369228   -0.78860527728182    1.03804854252687
H           2.56009623386050   -0.46902961123545    1.02028354516325
