    26
        -50.45745401  Gyration_radius:  2.74317930908 Dipole_moment: 5.848
 S           2.37590585539143    1.31268899605735   -0.62922046358465
O           1.53611392532761    1.06612943200245   -1.79995973411523
O           3.66049448067153    1.86569834370406   -0.90228774383019
O           1.57102537895338    2.46824792019348    0.18852938320255
O           2.34247592412305    0.16272100386910    0.27054487988389
H           1.73251297020731   -1.73275932870446   -0.91206763051453
H           2.16509903757493    3.20531549194600    0.09210677676072
O           1.15079479333653   -1.56127831264446   -1.65828686292065
H           1.33416706291695   -0.62782224941136   -1.89030281962083
O          -1.15915109856647   -0.79433203538404    3.15630053373594
H          -1.70919823648438   -1.37157673983705    2.58426603712065
H          -0.61832868033796   -1.37941019225905    3.68886774406074
O          -1.05906064790300    1.45782201317362   -1.77330282710354
H          -1.28657471609290    1.91509811033383   -2.58336248485851
H          -0.07675135875999    1.36867838771134   -1.78787212941250
O          -1.34766283570053   -1.08194317726958   -0.94365852519429
H          -1.50545250925684   -0.26542104821268   -1.45435029974540
H          -0.49388888236572   -1.44053354040577   -1.29076175303780
O          -2.45208178939977   -2.25259484590941    1.29137340995917
H          -2.09564992876621   -1.95927084364491    0.43408984477433
H          -3.40368398702556   -2.29491484551800    1.18855539083813
N          -0.13883635878260    0.39570514604205    0.96209273105368
H          -0.31882962571064    1.38601924194248    0.81062796725473
H          -0.67687438160377   -0.17272099510645    0.25630008553113
H           0.90043658466481    0.24112081109813    0.78389566237891
H          -0.42700094639641    0.08933328624300    1.91788281738675
