    26
        -50.45726305  Gyration_radius:  2.46909156476 Dipole_moment: 7.178
 S          -0.29446984491202   -1.79219643323070    0.42636532749125
O           0.44780880355693   -1.14228910052152   -0.66297331304397
O          -1.39164253768576   -2.59422915174312   -0.04487018048735
O           0.71358855813457   -2.70715447979825    1.17907310873057
O          -0.74421563074885   -0.75709880333282    1.37517464568622
H           0.22352079262758    0.40063789898753    1.48205748920169
H           1.51168866489477   -2.14509940554298    1.31024209658088
O           0.87936892807316    1.16369748986526    1.59471531087826
H           0.65365611052192    1.56841281456453    2.43481972941153
O           0.16818201111224    2.54471061082471   -0.60259410437829
H           0.35704908380198    3.47175505019949   -0.45456843924368
H           0.48370936828923    2.05395050877097    0.18840886024504
O           2.63921086016212   -0.95674595926150    1.67342381901825
H           2.88067939743688   -0.99249406678342    2.60164140590943
H           2.16591814604317   -0.11624469946593    1.53084470915478
O           1.44521768978903    0.73427551940000   -2.55226562702602
H           1.45480618995637   -0.06193286258708   -2.00838104032106
H           1.29997552766561    1.46431508004311   -1.94122432893694
O          -3.08553438852791   -0.58462633201515   -0.02554372941152
H          -2.72563776279414   -1.49135465278283   -0.13755443885537
H          -2.68412195958662   -0.31718563847811    0.81188937268530
N          -1.30410310735569    0.47181401649250   -1.65884042430063
H          -2.16824540724037    0.17843145869676   -1.11896669451445
H          -1.42252496684314    0.42160483837554   -2.66586347823976
H          -0.96655455361215    1.40632391593156   -1.38329758531471
H          -0.53732998277537   -0.22127760662068   -1.35171251091111
