    26
        -50.45515876  Gyration_radius:  2.6404747259 Dipole_moment: 6.495
 S          -2.10317988248511    1.51743213127815   -0.20155490115292
O          -1.51849576050224    1.20603312822398    1.09710590934058
O          -3.47966418505848    1.88935378105748   -0.17019621480824
O          -1.29764959891137    2.80240041861463   -0.74694934480245
O          -1.75552359514050    0.47756705872900   -1.17979962704278
H          -0.23594004069247    0.76334665379365   -1.52389918119763
H          -1.84429210261612    3.51959499995256   -0.44458690091662
O           0.74168321349890    0.86942095714481   -1.68118323580261
H           0.81718895809874    1.37968576881055   -2.48799218555885
O          -1.35892142698954   -1.38924631731687    0.57801025395210
H          -1.63500348340618   -0.88162304560774   -0.21974592279256
H          -1.48463168564425   -0.72424902593998    1.27348302692341
O           2.57458547013150   -0.05109405472595    1.83051052011635
H           1.99416458228566    0.73701575684325    1.64473978022625
H           3.47079702165010    0.28249321056066    1.87937812306649
O           1.03248113990420    1.86961699936483    0.94407662084801
H           1.08503395817608    1.79331299714451   -0.01962903714175
H           0.08807601271250    1.69428048150265    1.14387240614002
O           0.00387625299322   -3.70195675843102   -0.48228388241571
H          -0.39662111795655   -4.53875979329358   -0.71993324941400
H          -0.69294308844002   -3.16552209356510   -0.08013879584878
N           1.22712818803649   -1.27924698556787   -0.09492260381034
H           1.87801348790643   -0.96346025198279    0.66572165941905
H           1.23494505543276   -0.58513606154383   -0.86220061091721
H           1.41693793749349   -2.22488933850205   -0.42774702026568
H           0.23795467951709   -1.29637060655077    0.28586442384778
