    26
        -50.46606508  Gyration_radius:  2.53662604287 Dipole_moment: 4.852
 S          -0.93258320412767   -0.90252718814787    1.72750217101450
O           0.23466694767202   -1.15638977317792    0.86126034829333
O          -1.82854931282620   -2.00520728057280    1.82181652831116
O          -0.32563894483829   -0.63265242548085    3.16205662154541
O          -1.56105496510719    0.35679328128210    1.30955434564369
H          -0.82763031653546    1.58896069809969    0.64552984081823
H           0.38294745466237    0.00999836471836    3.06100824948249
O          -0.27471794657432    2.27582825021716    0.18277348384107
H          -0.80638765300442    3.07200083754941    0.15462348543935
O           3.21994352571567    0.49208074384792   -0.63714012846229
H           2.86850110094025    0.71915956141757    0.24996445981447
H           3.87477868573589   -0.19307266150182   -0.49829706942345
O          -2.47240111399276   -1.15020687677336   -0.71093823554754
H          -2.47378835171161   -1.91690062765939   -0.12533925713342
H          -2.33821064646528   -0.41131105231738   -0.09614709776360
O           1.71194247822809    0.87309737492418    1.61406379303890
H           1.24833736996775    0.04911662452989    1.34946617798233
H           1.17830060051250    1.59995830562412    1.26112315105712
O          -1.12856785952835   -0.91584898383975   -3.02948022831953
H          -1.73133486153660   -0.99644675441972   -2.25784076403330
H          -1.11014471540843   -1.77959282656841   -3.44361769247700
N           0.62639470597151    0.20921909368098   -1.35394013705549
H           0.13061768604366   -0.15500254754675   -2.19355349999273
H           1.65872003540686    0.26743979905907   -1.43075097538609
H           0.26373085661878    1.13795300243676   -1.07911724907598
H           0.41212843417952   -0.43644693938514   -0.54458032160196
