    26
        -50.47142881  Gyration_radius:  2.45730784629 Dipole_moment: 3.739
 S           1.64675403575096   -0.31548836878101   -0.00926734214456
O           0.97945812687963    0.99353142979381    0.04936385283991
O           2.00213543771986   -0.68174857175381   -1.35453218867281
O           2.94305595190650   -0.21502557362904    0.84552729353723
O           0.78787132339841   -1.32558060153706    0.62139943526014
H          -0.08866551219351   -1.97259058665217   -0.68003325476276
H           2.63303236316391    0.17521359617035    1.69152103048991
O          -0.93218987835964   -0.53887906881132    2.38716193863083
H          -0.28503380523535   -0.84680366812299    1.69893467439965
O           1.45640117205214    1.01966563278753    2.66177009040320
H           1.18203158054343    1.36954215422544    1.79710907777458
H           0.69947329334588    0.50434417995345    2.97074367846899
O          -2.76724595402727    0.87991516586817    1.00292864786473
H          -2.14658500899552    0.34259566662262    1.54469815725124
H          -2.79750595342610    1.74417022906798    1.41621285050966
O           0.52815564125599    0.57681620849701   -3.22411203885326
H           1.11110732796748    0.84981849943310   -3.93351839770656
H           1.10859983388782    0.15033413910217   -2.56296986574223
O          -0.60306219459662   -2.01547390089312   -1.51315217639177
H           0.05832489522930   -2.00886326616620   -2.21130254822625
H          -1.27087176678341   -1.33767012187902    2.79564398068707
N          -1.28066295292686    0.54444775055817   -1.21012498048113
H          -1.18404595180222   -0.48933403989915   -1.40769138120992
H          -1.35856018042074    1.03817826361629   -2.09618283784700
H          -2.05027205807699    0.72733557416947   -0.53096698866689
H          -0.37169976624525    0.83154926826439   -0.74916071740436
