    26
        -50.46705310  Gyration_radius:  2.47020515571 Dipole_moment: 4.733
 S           1.92805131493996   -1.00232062230488    0.13212645834025
O           1.01442704382783   -2.14111503038399    0.10490322919353
O           1.81859448313593   -0.15493485303726   -1.02691201142099
O           1.80938133496872   -0.26658537057911    1.38590720982102
O           3.38642333515445   -1.61805060051883    0.12207730094397
H           3.35718483597120   -2.18080593087910    0.88842072651719
H           0.35388364061746    0.06116416754498    2.18800892354870
O          -0.47055959408992    0.49171714630834    2.49931174508270
H          -0.27610728205907    1.43295002354830    2.45942269110228
O           1.15520409251790    2.16890568321532    0.49881963956856
H           1.45574387084122    1.29533065217334    0.81988483573629
H           1.72038638287292    2.35736875326322   -0.25321396683681
O          -2.43426095171971   -0.00641893154713    0.85355574028536
H          -1.69501367109163    0.14222946454383    1.50701696523638
H          -3.23417039329077   -0.09990221828083    1.37200014197721
O          -0.30220822734604    0.29643416074214   -2.60422664507758
H          -0.68093830775931    1.06855709901880   -2.11829037637432
H           0.60070609883851    0.19927512476700   -2.24519237081289
O          -1.24097663969086    1.99973910689038   -0.79629060272592
H          -0.41981152883286    2.15168318899476   -0.28657354827151
H          -1.80336089293212    1.44477912643929   -0.24107564694986
N          -1.23447229702366   -1.54915818218426   -1.05563580948144
H          -1.81498302228470   -1.05865127784492   -0.34955595495160
H          -0.92941195424515   -0.82842732633155   -1.81292599008728
H          -0.33486815503802   -1.86686442328589   -0.58318221228204
H          -1.72884353628193   -2.33689892026637   -1.45838045208151
