    26
        -50.46451118  Gyration_radius:  2.69292383275 Dipole_moment: 3.139
 S           2.26586269413054    0.08348441861394   -0.78155494880601
O           2.36318968379428    1.38349796061753   -1.41294031837068
O           2.46351591986111    0.09455279022089    0.64794279349259
O           1.00978341831516   -0.58631410625548   -1.14660047713894
O           3.42483486293288   -0.80145347230704   -1.39990597649695
H           3.37920230421708   -0.56935031350251   -2.32177567125197
H           1.31484220031692   -0.02383885321824    1.75844910032622
O           0.51390670349351   -0.05648774685048    2.34420702313809
H           0.80514594970934    0.24927418719972    3.20410021434218
O          -0.00407119916983   -2.29943963236978    0.66315103933605
H           0.45497637862685   -1.81193074006600   -0.04747400554522
H           0.12854370517744   -1.77384315676608    1.46198933133554
O          -2.52709897905475   -2.34958886206290   -0.16361467200561
H          -2.48270269809533   -2.82342203986418   -0.99512620346894
H          -1.61012703086573   -2.37940561129713    0.20739034755796
O           0.60812585616230    3.13352129587286   -0.55485193374065
H           0.47787870530496    3.75085685715774   -1.27649471701674
H           1.35094404190991    2.54583683288098   -0.83637335541901
O          -3.29686711957401    0.17555789527202   -0.22049089081666
H          -3.07745993957445   -0.78968296875499   -0.25517723375662
H          -3.95490831578088    0.26990102197787    0.46949323443601
N          -0.74436042860580    0.92754190419698    0.13500131672457
H          -0.44230465382559    1.90174709249472   -0.07839654865778
H          -0.17191966859289    0.29929532714867   -0.48260867575254
H          -0.48271126779050    0.68703434431730    1.10769337114311
H          -1.76622110310833    0.76265557548842   -0.02603215358605
