    26
        -50.44134022  Gyration_radius:  2.58142008565 Dipole_moment: 5.581
 S          -1.81540293248733   -0.17235564094201    1.71312495403172
O          -1.16974588072628    0.44383239894570    0.57286977916272
O          -2.95959623605260    0.47940462612136    2.22461887626616
O          -2.17525379449271   -1.62836591487435    1.33067811874257
O          -0.73103587700705   -0.35200970845168    2.81095856569315
H           0.17488384199816   -0.09447604906676    2.45638549174592
H          -1.30898904221670   -2.08562001913927    1.15471607777615
O           1.63056316838528   -0.98593073591727   -0.63583048375475
H           2.28295501330616   -1.43370046468386   -1.17578238669355
O           0.85392714045416    2.02573082232496   -0.22176861797907
H           0.03172320730803    1.57436659780657    0.04965903814964
H           1.37625614795667    1.35395104011785   -0.67231365589621
O           1.57165835018333    0.27101032808133    1.82791440972508
H           1.48455571521828    1.19596349047474    1.55479980843044
H           1.70091821185289   -0.21907625055990    0.99577505751934
O          -0.15856050369497    2.52261357462530   -2.75371116698420
H           0.21994526821197    2.60029751346928   -1.85944441427769
H          -0.84077673563618    3.19201347595701   -2.81699021619608
O           0.22509521642379   -2.56379761569983    1.04482911669285
H           0.74399686603603   -2.03495945089523    0.39939923632057
H           0.62826452840987   -2.42930868488706    1.90636924072247
N          -0.41091670419610   -0.32842603360380   -2.07871542992503
H          -0.87192374746911   -1.00614588065155   -2.67132849436443
H          -0.30230115799963    0.53688875989659   -2.60563182611316
H          -1.02550794167728   -0.11944955072564   -1.29415186362497
H           0.84526786775890   -0.74245062772971   -1.25642917516053
