    26
        -50.46845254  Gyration_radius:  2.40136284337 Dipole_moment: 7.498
 S           0.56255945766044   -1.23287827197366    0.39549686360788
O          -0.85520389225072   -0.86542242545987    0.27160240579019
O           0.79374212197608   -2.64226119756048    0.26236223113776
O           1.27486800193431   -0.48045138913790   -0.80533338506895
O           1.15485781201151   -0.62751025173841    1.58234476301821
H          -0.08213940140950    0.11944138467595    2.46983860230254
H           0.80628636581146   -0.83368824990267   -1.60429039524071
O          -0.93239881570298    0.60588855479300    2.55516958283369
H          -1.50447264863475    0.11619877120193    1.94870692649292
O          -0.98204695648432    1.30473030956242   -1.14567495091926
H          -1.02530174414820    0.45398637375480   -0.63063211835307
H          -0.25584487214244    1.18735627133210   -1.76419592217206
O          -1.24791036986797   -3.22008663524269   -1.26169397180920
H          -1.90415793713222   -2.75301815935414   -0.73671544435657
H          -0.44724205670395   -3.22700884766874   -0.69139530744664
O          -0.28066361682861   -1.27225449405493   -2.73493385894122
H          -0.63188701525804   -2.10958387965067   -2.33133444762473
H          -1.04815582713670   -0.70570883937768   -2.85109346439157
O           2.35210597145781    1.56477444498624    0.83742568557802
H           2.64072352370468    1.33137619791897   -0.04864730001636
H           2.03992848781226    0.70813894848985    1.21962576207051
N          -0.09057414960301    2.55666089149462    1.01517084441514
H          -0.52422279578391    2.26223172545503    0.09981831572674
H          -0.26203855132294    3.53099355719765    1.23537063954457
H          -0.49598894524582    1.89660286228869    1.75476656328951
H           0.94517786328919    2.33149232798421    0.95824135052995
