    26
        -50.46485002  Gyration_radius:  2.48612999089 Dipole_moment: 7.305
 S          -1.13991777260487    1.25147723639874   -0.25673666792793
O          -1.39633726473714   -0.09289058294437    0.30655267084153
O          -1.09131728643507    2.23674840415647    0.79687844785169
O           0.09629577546861    1.21784622048562   -1.04603489200494
O          -2.30617146265526    1.58074384959584   -1.20650510244150
H          -2.09885440231952    1.03292362349744   -2.02075111582016
H           1.41598673729905    0.67707748697994   -0.43863238640761
O           2.22357513893465    0.28578888557730    0.01087850261510
H           2.85818532662385    1.00155868713770    0.07088803646426
O          -0.02508123906786    1.73877511105612    3.12856871691021
H          -0.39194909470857    2.03800545075007    2.25752766450857
H          -0.71177307495446    1.92898955257643    3.77010045688102
O          -1.28870562232333    0.12935189441119   -3.06659482384046
H          -1.30737387535566   -0.78471115267218   -2.70176801142651
H          -0.47584346700923    0.52033476780716   -2.71291657166249
O           1.62157278973211   -2.32378795902935   -0.74881841662169
H           2.12364442321139   -2.66550460324386   -1.49044513690170
H           1.93541933019641   -1.42001745463034   -0.59262084625864
O          -1.07665470606831   -2.03919912279394   -1.51262083230205
H          -0.16412682776394   -2.28327312308804   -1.29070143031488
H          -1.35270927056559   -1.43754182255811   -0.79801070508027
N           0.52795211405558   -0.54855421410165    1.93597895103291
H           1.35808365398860   -0.33974337385619    1.34303112688400
H           0.39493266117136    0.23586841715187    2.62405212319901
H          -0.32354157065829   -0.47568469099297    1.27277280074632
H           0.59470899652431   -1.46458149764024    2.36592743109235
