    26
        -50.46453498  Gyration_radius:  2.67676420799 Dipole_moment: 5.560
 S           0.12933166759954    2.42943350179739    0.27324619270828
O          -0.79281570959570    2.64688754551302    1.36218413843702
O           1.29127750148285    1.63118915882016    0.61132113217264
O          -0.54086853040453    1.91285299570624   -0.92571193457122
O           0.66983230187731    3.87066733259301   -0.12063444256489
H           0.03657609424527    4.42165336294203    0.32591455649373
H          -1.58223020486976    0.69757458015313   -0.79201331089710
O          -2.14997506727553   -0.11382903060439   -0.71719143439288
H          -2.92634646184987    0.05695528538974   -1.25172724973824
O           0.75316964258319   -0.69781344964460    1.79918065182762
H           1.12012824695479    0.16825100287090    1.53041713634222
H          -0.15458257795223   -0.47592986075334    2.11639918412833
O           1.07052798496189   -4.17338300768478   -0.75747682685447
H           1.09276348816269   -4.48168980859047    0.15173320849153
H           1.90977175380609   -4.40504865471143   -1.16075235449017
O          -1.71350897834704    0.22976193877798    2.05763503087258
H          -1.45477842147040    1.16715964995741    1.95778865176233
H          -2.11019724372647   -0.01264318087699    1.20972601351942
O           1.51382379946270    0.52255130182253   -1.79995437522442
H           0.71850700407474    1.09100982255891   -1.80758730756518
H           1.96597212758177    0.84537269759200   -1.00470377750256
N           0.22590692915761   -1.49375675796734   -0.62952295043468
H           0.79897082854845   -0.82676852983866   -1.21509537045241
H           0.42970574777719   -2.47584117205618   -0.84394348311217
H           0.46712732628263   -1.27393969887794    0.39819017652578
H          -0.76808923906315   -1.26067705485929   -0.76742127547202
