    26
        -50.46850061  Gyration_radius:  2.45669051042 Dipole_moment: 4.950
 S           1.02973238555665   -1.33131704195892   -1.12073915460910
O          -0.40062493667075   -1.14346273534457   -1.02350134802604
O           1.54171607083490   -2.49886062065060   -0.45161030262826
O           1.33716251005375   -1.53740510332533   -2.67026387338320
O           1.74958621736471   -0.10580595194174   -0.74450921363922
H           0.86099201204035    0.85039708772885   -1.86358591154828
H           2.09722713534285   -2.11058999323380   -2.66958778841034
O           0.07849998269523    1.22502654743619   -2.31103265948838
H          -0.49902799210836    0.45999920734655   -2.41455812159186
O          -2.23023180871508    0.24037563834227    0.44906635508120
H          -1.68066383662886   -0.32595559560999   -0.12103049105325
H          -2.02036179684819    1.14787238245230    0.19272071691366
O          -0.74578424942620   -0.25357895006454    2.59401639369454
H          -1.50518895968361   -0.08366674110139    1.98913661973025
H          -0.48507380658733   -1.17986913171531    2.38671550899831
O          -0.88904415616467    2.64376621611910   -0.32556020295945
H          -1.10957498411766    3.53378319546567   -0.60174933197749
H          -0.55769644886347    2.16899918813562   -1.13660708261496
O          -0.23004790479128   -2.63870079649053    1.52613317781563
H          -1.02270924227940   -2.76787567391708    0.99953355368251
H           0.50634840163872   -2.66477699014812    0.88473659956903
N           0.85323199045473    1.29288260078181    1.29819350944613
H           0.22697427608907    1.97552645041308    0.83269131366187
H           0.23652668428629    0.63912027830287    1.92941977876203
H           1.28445030801274    0.70282111739800    0.53591754054710
H           1.57358216856105    1.76129541560982    1.83605442397775
