    26
        -50.46815414  Gyration_radius:  2.47599237907 Dipole_moment: 5.892
 S           0.47236058192314   -0.32758469404251   -0.97839761535452
O           0.92613400008084   -0.75061934149718   -2.39163151208658
O          -0.21966699480942    0.95111033962287   -1.07065718353060
O          -0.38226340933809   -1.37213126017357   -0.42920612038129
O           1.69513209438661   -0.19433522555153   -0.17504017980455
O          -2.48093288149245   -1.69644527677845   -2.00990623548140
H          -2.54344857809515   -2.63047632238115   -2.21591386212357
H          -1.76606738176082   -1.61058353379009   -1.34300968231649
O           1.71788966408964   -0.98404411472432    2.37730260164219
H           1.74904448238172   -0.87171746844585    1.40350372911257
H           1.94153160292274   -1.90005292120947    2.54739353197047
O          -1.01290588699186   -0.52217592736422    2.03546521343106
H          -0.94814075474465   -0.91646740195328    1.14450294267208
H          -0.15748512937051   -0.71734442538170    2.44793213392840
O          -0.89610508962992    1.98592195923662    1.25564027683766
H          -1.16327729313095    1.13295126802579    1.68242349664640
H          -0.83411906838646    1.75204086081334    0.30268960798269
O          -1.20995233701980    0.16823132333649   -3.44947691701957
H          -1.85509718865527   -0.49193369950923   -3.11845303986626
H          -1.15285678162792    0.83593552845838   -2.74969983156294
H           0.16160197463089   -0.45293294261146   -2.97049872303397
N           1.62225674385823    1.75113126878544    1.55971950320009
H           1.75676002421866    1.07957284861234    0.74567161197471
H           1.83744810462750    1.22283547636697    2.40538723801430
H           2.20990353229570    2.57261521407915    1.47230697741958
H           0.53225596963870    1.98649843807344    1.52195203773192
