    26
        -50.45682257  Gyration_radius:  2.66770284755 Dipole_moment: 7.213
 S          -1.10975157122771   -1.13547332992647    2.38020345942926
O          -0.74995777272342   -2.14725589699482    1.40431266626924
O          -2.10031460388104   -1.51424380634310    3.33491848428631
O           0.23703664030576   -0.86332627124953    3.24369977133199
O          -1.33675987732710    0.15725704364198    1.72037024832412
H           0.11120858295527    0.65656862393198    1.44920041574667
H           0.02662336295366   -1.38764291578323    4.00767025432729
O           1.03659010626861    0.96385935184706    1.22356472038213
H           1.46564895770204    1.08720503122017    2.07205051914560
O           0.25927980189250    2.38582719048200   -0.92028442299541
H           0.28323843999538    3.31292636708271   -0.67963103175871
H           0.62303043852910    1.89283097402319   -0.15339085713084
O           1.45551239752475   -1.55186464121676    0.21957460969458
H           0.68591848094601   -1.90880899927397    0.73681911453220
H           1.57602914073877   -0.65130641919553    0.56843280754581
O           0.99926056150223    1.07063029116988   -3.20838616228347
H           0.54643001114809    1.50351505575076   -3.93351822823440
H           0.83626597797181    1.61512581625996   -2.41483527832276
O          -1.81680228544328    0.44428816391116   -0.84575018079836
H          -1.79893126026705    0.26330432225928    0.12182819410463
H          -1.34422046008969    1.28416118094590   -0.94385187175569
N           0.02248678987052   -1.11323224350272   -1.90180204423892
H          -0.81111302199020   -0.59445536904816   -1.48138135689418
H          -0.27650004906605   -1.96182822158505   -2.36779024280752
H           0.49368400147427   -0.45741590805376   -2.55219216961702
H           0.68610721028316   -1.35064537044059   -1.07983142827405
