    26
        -50.46303475  Gyration_radius:  2.38112592106 Dipole_moment: 8.843
 S           1.28600160870378   -0.38526281379944    1.27230889483630
O           0.54317018440671   -1.07385551030948    2.30235335304901
O           2.71579406948289   -0.42660916137235    1.35520096981584
O           0.93577112276635   -1.13776611692524   -0.09787588166473
O           0.77185191451021    0.98571571117514    1.08035501501205
H          -0.69794800602757    1.44629093005749    1.00351891115363
H           0.00877740806261   -1.43515810088112   -0.07498885379652
O          -1.64296493570535    1.72788867073792    0.80445650072964
H          -1.69291603814829    2.65280253711744    1.04967569020359
O           3.29939890573116   -0.28196318014766   -1.21880340296987
H           3.08648721320381   -1.17904387087306   -1.48306861769623
H           3.22516311745105   -0.28633322321854   -0.23790645193990
O          -2.02434965299240   -0.82213626123104    1.93358042750515
H          -2.13936187347502    0.12873878889445    1.80545883643339
H          -1.08538387858795   -0.94245357841632    2.22725060034369
O           1.27351510498269    1.40912526375347   -1.43106713146178
H           1.20990358581447    1.43261773589298   -0.44769371884955
H           2.04428638366739    0.80956265233745   -1.57804552614619
O          -1.65475003148133   -1.77489555565062   -0.40890783513333
H          -1.92521509711721   -1.44057576185859    0.50822462491014
H          -1.81536642393723   -2.71901980701241   -0.40810190751621
N          -1.16494563087398    0.65417119013985   -1.61869068562171
H          -1.31152029678736   -0.34830421132439   -1.43115180825430
H          -1.64092033083338    0.94231161326431   -2.46638038266465
H          -1.52340139198895    1.17237659613037   -0.78135071683198
H          -0.08107702081715    0.89177548344260   -1.65835090344787
