    26
        -50.45528885  Gyration_radius:  2.705466654 Dipole_moment: 2.543
 S           2.50695923724559   -1.37765278426595    0.27871105810303
O           2.51615741876828   -0.55058479068875   -0.91406229474064
O           3.49291794208883   -2.40564525986373    0.33980999792917
O           2.83980706172903   -0.38381192686043    1.51317609005874
O           1.12639295443966   -1.81470675834383    0.56320346811032
H           0.47065798217757   -0.55796524362790    1.41480400206116
H           3.74483275756939   -0.62228770996367    1.68232805145785
O           0.15020643914962    0.30384333536605    1.77075473308281
H           0.74635424346138    0.51306115010765    2.49210560718816
O          -1.59087473470777    2.60262992891682   -1.04873270949246
H          -0.65644273764126    2.33692672756877   -1.03993567974860
H          -1.60834565928965    3.55928656336619   -1.00887282733919
O          -2.46976572665191    0.87919135242776    0.91109088797947
H          -2.29078721479717    1.56469854922979    0.24167656522100
H          -1.62275268038481    0.70300518476902    1.34807711196294
O           0.81887131036641    1.39334605942158   -0.62521615106730
H           0.61642069158100    1.22730300934101    0.31613001150411
H           1.61007537942266    0.83138901718104   -0.80276673111903
O          -2.84860169286607   -1.23387557057673   -0.57918345339836
H          -2.85578787979541   -0.41895140792892   -0.00368356305658
H          -2.98043874303877   -1.97709544198383    0.01159527281142
N          -0.35615154244597   -0.92013065800208   -1.39706453649416
H          -0.11344430963620   -1.25332810561414   -2.32392308385795
H           0.23628110258567   -1.41386217972457   -0.66686927531667
H          -0.09887166036000    0.08990621813229   -1.30069766870752
H          -1.38366990888253   -1.07468927832939   -1.17245489314887
