    26
        -50.45841238  Gyration_radius:  2.47308350343 Dipole_moment: 4.874
 S          -0.13634494777879   -0.79545512359846    0.71007900622881
O          -1.33432971027744   -1.16198379685161    1.41983136751607
O           1.11871417157269   -1.29834679111232    1.50880992918050
O          -0.02832575174985   -1.42432597149883   -0.60671952790763
O           0.04065330584292    0.65667403688665    0.60547850618320
O          -2.82049019873438   -0.94727674128274   -0.84273378868176
H          -2.28112665327478   -1.54824623229975   -1.36392278163923
H          -2.49562301333777   -1.05115958265250    0.06772990269907
O           2.52337317232289    0.78189556960531   -0.09514267608611
H           2.92392963546150    0.12529292429803    0.48107373341647
H           1.59668957881537    0.89094473277637    0.24381498183326
O          -1.66639509301265    1.45423124886724   -1.29898608957376
H          -2.27725573348732    0.68965955370721   -1.26855587485233
H          -1.08364524234969    1.32617890931160   -0.52731537985466
O           0.07034102422690    1.34660545988018   -3.18920012453533
H           0.44124529758588    2.23047903705542   -3.22515899221173
H          -0.68523678911726    1.38817840095418   -2.51698018469438
O           1.58641179507310   -0.36470022845423   -2.15921010578852
H           2.11680267126062    0.14482054755763   -1.44396990286367
H           0.90466741840628   -0.91039542951685   -1.57104862319567
H           0.98560864687249    0.34209581191069   -2.66495694042217
N           0.10255383078408   -0.32244083105392    3.69184162847126
H           0.18628407377881    0.68437443138001    3.74870972314212
H          -0.77168589787983   -0.53723718413106    3.21701305839649
H           0.91934950960307   -1.00500100096094    2.44745211302360
H           0.06383488915691   -0.69486176057524    4.63206704216109
