    26
        -50.46543594  Gyration_radius:  2.51793418628 Dipole_moment: 5.687
 S          -0.30540387860698   -1.13472100432445   -0.47923216222705
O           0.20036736753266   -1.35995793223098    0.87527157963036
O          -1.67872756519179   -0.66237278600076   -0.47005397886954
O           0.56352704482277   -0.19606354783952   -1.19759452120693
O          -0.27624587560779   -2.47950521445481   -1.24332970153441
H           0.57396820049985   -2.89821791041333   -0.92642757449810
H           0.35782115966372    1.38972840418716   -0.89302815418447
O           0.04940199160931    2.28973875924064   -0.61794959827845
H          -0.89068145034336    2.30758680369050   -0.91177928631530
O          -1.61155459412961   -0.07249016800605    2.16366274152455
H          -0.89694680880688   -0.68451546478644    1.85079706574599
H          -2.24219265433405   -0.11852413372282    1.43229497013709
O           3.07310399032813   -1.00957154306949   -1.31726531688526
H           2.17158120353913   -0.62092573044563   -1.26794964875983
H           3.30428142752399   -1.02282358274963   -2.24752983770489
O          -2.47671147526419    1.73738628421195   -1.18635451171423
H          -2.80798503869222    1.69316385629021   -2.08452274175550
H          -2.25429971825504    0.80972210230701   -0.93822814814131
O           1.93948277912528   -3.13720596570243   -0.11815379535947
H           2.56716585786099   -2.50989122070941   -0.53308149900793
H           1.54614495470755   -2.64398649904053    0.61878810925270
N          -0.17556338757379    2.08337832006911    1.92284348356926
H           0.72771775540322    1.88305022716211    2.34103764705306
H          -0.82594625539527    1.22629865979270    2.06857467707710
H          -0.58130214112160    2.91593631357382    2.33768550367063
H          -0.05100287933923    2.21478298309728    0.82152469873352
