    26
        -50.46728517  Gyration_radius:  2.48294875795 Dipole_moment: 4.183
 S           0.06983865324038   -1.29612518110828    1.35938865918518
O           1.36472426394075   -0.68180362721002    1.11580927351956
O          -0.16899262001058   -2.41563828269618    0.45468639299111
O           0.13036212437924   -1.89759729696999    2.82160444092519
O          -1.02134224397684   -0.34472147500936    1.37394667935774
H          -2.08665905937958   -0.64726746545879   -0.05664146650071
H           0.94069043554059   -2.39653342442709    2.82342699581537
O          -2.12902068242659   -1.20317329243000   -0.85487447707451
H          -1.60816408136901   -1.97529906701914   -0.56917424028826
O           1.57503591399746   -1.63397008613580   -1.34694303052573
H           0.95716885832888   -2.20923429296842   -0.85137936902419
H           1.95561070122293   -1.10692738056281   -0.62572497182959
O           1.24060716122332    1.97614150998567    0.77561900810915
H           0.61388149467815    2.21922856940599    1.48281143448906
H           1.38522435623856    1.01976094544101    0.90819012707254
O           0.18201689549424    2.36185995121285   -1.55438627702333
H           0.81491368291114    2.92739309341467   -1.99916874188273
H           0.54942273523930    2.23207225344995   -0.62793766414113
O          -0.78254318355425    2.02064367103115    2.59120805161651
H          -0.89962240009724    1.10730333633372    2.26096054902009
H          -1.61141699367028    2.47150769571424    2.42157929063623
N          -0.29614833883637   -0.09823477067804   -2.40662455104381
H           0.53570779325697   -0.68780204730272   -2.10321376081733
H          -0.12921038684269    0.90694121879814   -2.11690904212869
H          -0.44975103952550   -0.16711960729949   -3.40663607801432
H          -1.13233404002457   -0.48140494751532   -1.86961724242481
