    26
        -50.46067939  Gyration_radius:  2.5272695402 Dipole_moment: 5.930
 S           1.37698788275498   -0.70121282068354    1.41338616539280
O           0.34651856161093   -1.36513741312701    0.58309737230801
O           2.70106556954345   -1.01738535243690    0.94976989844224
O           1.11348003361812    0.73088901488369    1.47159265492457
O           1.20241561447951   -1.25955515370882    2.86414541767583
H           0.28111707401453   -1.04003331124962    3.07223525988534
H           0.49732690806958    1.68605964426754    0.45310554473988
O           0.06768464267979    2.25305866120491   -0.25902612328557
H           0.46373044573487    3.12072412453668   -0.16803466715332
O           2.85292936739821   -0.78752775167750   -1.70631412730480
H           3.52425246497378   -1.41157429232429   -1.98624144661172
H           2.84256533482024   -0.84308764726823   -0.72375729179760
O          -1.44725593853599   -0.69134628794524    2.38980755575556
H          -0.97975932114955   -1.09917927912349    1.64007015010447
H          -1.86703240623264    0.08960347632624    2.01226110033891
O          -2.37918719738337    1.18185192227428    0.26402574680324
H          -1.52239442472432    1.62933992998602    0.11613185905831
H          -3.04854184119546    1.86740121987082    0.29402235544455
O          -2.36233352671941   -0.52973625127033   -1.89935358721533
H          -2.46972693274238    0.05626434610338   -1.12413994936625
H          -2.57418712973319   -1.41199325381272   -1.58912066770841
N           0.27513829872876   -0.08253608635480   -1.65782880800661
H          -0.60756605341115   -0.30702388321881   -2.15036726332421
H           1.15680901498538   -0.34479542859612   -2.12267002879470
H           0.28510032327024    0.91638016467160   -1.39665703007991
H           0.27086324515442   -0.63944827133326   -0.74014011024020
