    26
        -50.47468852  Gyration_radius:  2.41757150467 Dipole_moment: 2.068
 S           0.72821493037698    1.56171172002365   -0.04227651468400
O           1.24898283771716    0.47391504962198    0.79967821597264
O           1.37211287369016    1.61661804471219   -1.32364996440683
O          -0.72883539108105    1.45193588351986   -0.15519960095959
O           1.02246739710149    2.89262587582342    0.72416951669758
H           0.64694253117991    2.72451147243079    1.60406854584623
H           1.34467005694290   -0.99319422494307    0.12560982974895
O           1.36781217585485   -1.88427769945035   -0.30327994235368
H           2.13068776577544   -2.33569111317281    0.06085971035887
O           0.33939894753794    1.54167217436108    2.97071947744049
H           0.99840264233540    1.58826243690239    3.66611000433092
H           0.71112184673622    0.96308935946456    2.26625717272259
O          -1.35651231449092   -2.25895727255486   -0.00596401004615
H          -0.38790300371782   -2.34384287523653   -0.02693247493401
H          -1.55587349834358   -1.67134838035109    0.75040649693879
O           1.02685648815154   -0.61759142943702   -2.74184184066731
H           1.28574338793174    0.26031508392879   -2.39183690238304
H           1.32129620555700   -1.25023897756605   -2.06572887023745
O          -1.69934549834749   -0.20023736416657    1.71505218207377
H          -1.42200572575134    0.46665647109972    1.05735070362373
H          -1.34961814408499    0.11781003751439    2.55128073481735
N          -1.43949164357064   -0.42137553717243   -1.87288134988734
H          -2.24284522480361   -0.30382924711214   -2.47904730409389
H          -1.28178656863500    0.42420165908435   -1.26782471784760
H          -1.54921421818579   -1.24828658576653   -1.20125114146809
H          -0.53127886584314   -0.55445456162552   -2.41384795667621
