    26
        -50.46801043  Gyration_radius:  2.45889412043 Dipole_moment: 4.771
 S           1.17256197180765   -1.70220282671249    0.10513392690816
O          -0.07199272059361   -2.41035977593986    0.37209705090390
O           1.30245854608794   -1.27369876354479   -1.26449503225911
O           1.35668019088319   -0.61425910198364    1.06688220608718
O           2.34411791206851   -2.73064906105832    0.37293551162606
H           2.16658655855160   -3.03227087877786    1.25801694245459
H          -0.15944142427861   -0.29828747673453    1.43537786414909
O          -1.13755475472442   -0.15561539689419    1.53111721286940
H          -1.48930467968208   -1.05141265322374    1.53396458678537
O           1.64128859225150    2.06467514564715    0.57219116624977
H           1.71796882071435    1.13491430221993    0.84620688190585
H           0.82780413766138    2.39890873066263    0.98676471953696
O          -0.81513459511629    2.57604058813807    1.81070353105461
H          -1.04402690115473    1.64081104250025    1.91377860344472
H          -0.70179119687022    2.93297727851569    2.69277776002473
O           0.83331222367868    1.30016505145762   -1.81464337972636
H           1.24084271202180    1.75125880480097   -1.03283699732302
H           1.17535859157480    0.38488092443107   -1.77268390399055
O          -1.32212081816050   -1.88351674131734   -1.87527947834265
H          -0.54432962703464   -1.84749075691423   -2.44226815193281
H          -0.96287243111038   -2.21947604922750   -1.02237400215368
N          -1.53726999782524    0.62640821501236   -1.05493772118060
H          -1.61369407825457   -0.34150476986814   -1.47987862019799
H          -2.31391627664792    1.22496467890562   -1.31150104971091
H          -1.48384024617426    0.49511198340710   -0.02282058195502
H          -0.58169051964999    1.02962751648197   -1.40422904518912
