    26
        -50.44720141  Gyration_radius:  2.54546419881 Dipole_moment: 4.668
 S          -0.25692803175545   -2.15267221212799    0.87110016911850
O           0.04724382725807   -1.27916731553408   -0.24589429912834
O           0.77050222043348   -3.07711148356306    1.19408707877286
O          -0.61908285718242   -1.27273070751016    2.08980224725456
O          -1.58443837350848   -2.87457231995789    0.58250297368852
H          -2.22185091426333   -2.11596849245504    0.45675985966921
H          -0.22679682915014   -0.31649532493653    2.01872543345443
O          -1.52920282383790    1.54167574858068   -0.15945296933384
H          -1.97179996513672    2.37150642460588   -0.34261139781328
O           2.36795970998466   -0.27712022904988    0.42343534382746
H           1.56322845504213   -0.70226389734504    0.05106744557090
H           2.86726775428721   -0.98729924645728    0.83152751069419
O           0.31896686390678    1.03622765182358    1.73648020155806
H          -0.30631234233456    1.33318180949051    1.04026383066073
H           1.15593937945481    0.81759859760523    1.29133526789025
O           2.67341416288297    1.65103636686795   -1.56426962284663
H           3.23378099690207    2.35250076505581   -1.22999445283198
H           2.68946825369267    0.94461202911284   -0.89838057143711
O          -2.94147471337637   -0.66847420115425    0.55546812235218
H          -2.42534483042163    0.08845058329547    0.20189169718334
H          -2.97034803026682   -0.53960056764862    1.50743845826127
N          -0.09056433587607    0.84491497242387   -2.20210636298411
H           0.83094552296438    1.27495317740729   -2.17742256564007
H          -0.99298313679233    1.30120490097397   -0.99417791507233
H          -0.40073795093876    0.81576444223087   -3.16442794190276
H           0.01914800805113   -0.11015147171011   -1.87314754098616
