    26
        -50.46059393  Gyration_radius:  2.45122164343 Dipole_moment: 8.734
 S           1.43423596350243   -0.09989769241776    1.53223200674353
O           0.14476542496798    0.54908323397834    1.26676711087111
O           2.50640068390812    0.80830597135972    1.77795067532392
O           1.22634883973417   -0.97477497961186    2.82969309270771
O           1.70279074405620   -1.05553936274091    0.44027944390869
H           0.54071399464375   -1.62559391401878   -0.38420412540896
H           0.39747255511819   -1.46041697572670    2.70912955743277
O          -0.21924800320466   -1.97312088376066   -0.94826509444939
H           0.19747011551586   -2.49190957512495   -1.63788972007863
O           2.46129208960928    1.09438252004984   -0.91913093398298
H           2.27193835122183    0.19133021435861   -0.60393158686110
H           2.73514319284106    1.53695437768864   -0.10534100147534
O          -1.24202225017174   -1.61465345967761    1.69560884239670
H          -1.10941299964978   -2.17283335684894    0.92269169899994
H          -0.78670245165024   -0.76939260048149    1.48774838458070
O           0.33174508000793    2.00979945985680   -2.14591907709819
H           1.12502759569909    1.73419944781619   -1.61396970832300
H           0.65540628000050    2.14892026553902   -3.03720544299872
O          -2.42341909637166    1.07365054974774    0.98568752731106
H          -1.49792651576767    1.23520253198755    1.24871269126408
H          -2.69342984916893    0.30492691747234    1.50017638769470
N          -1.56717954034658    0.30414016407772   -1.41607159675659
H          -1.07314252466714   -0.61153929106454   -1.26361977769179
H          -2.29923941251305    0.21402948751776   -2.11276699180946
H          -1.97265223568943    0.62850172395234   -0.48904168864734
H          -0.84637604253215    1.01624521723814   -1.71932068238064
