    26
        -50.46578753  Gyration_radius:  2.71893548679 Dipole_moment: 3.975
 S           0.99816722720783   -0.94887992401414    2.12194505869949
O           0.33879477226205    0.32335768454273    2.39577261561181
O           0.07396891954019   -2.04577702079478    1.95552875470865
O           1.94263907529022   -0.82045068392779    1.01455017570300
O           1.86214419613772   -1.29044474954959    3.40782149335768
H           2.42474623169697   -0.53062195170463    3.52263618715983
H           1.56440256578367    0.58061211363375    0.28622044201893
O           1.04196027542318    1.38435354143289    0.03617238041030
H           0.67036575979124    1.65025155351091    0.88820964238067
O           0.51354336260039    2.49050527954102   -2.44916377961613
H           0.76824007739061    2.23675882458986   -1.54588918994172
H           1.29975539305193    2.39186755424722   -2.98841390689695
O          -2.08816292142874   -0.38335772237208    1.60439245827959
H          -1.29364184612398    0.01911562655913    2.01567042584054
H          -2.00676599488310   -1.31382467430611    1.84080109926037
O          -1.75562895635935    1.12334848184775   -3.05622010905470
H          -2.48947904695098    1.72938540036287   -3.16462100877523
H          -0.95196975076320    1.67455148338306   -2.95856420525619
O           0.42725885728254   -2.46851374468479   -0.61864635607642
H           0.21927258874495   -2.54445648744873    0.33709222252642
H           1.33776221993167   -2.15315019114214   -0.61495086049268
N          -1.00009008038722   -0.22380514315403   -0.82531398118606
H          -0.24816832699803    0.46049072447204   -0.59167418543924
H          -1.63158095610438   -0.27633945412130    0.01433334713317
H          -1.48050155605606    0.09686224436021   -1.68622043568078
H          -0.53703209607649   -1.16183874526168   -0.94146829467752
