    26
        -50.44184008  Gyration_radius:  2.44265167647 Dipole_moment: 9.089
 S           0.49767774228709   -1.90184798622731    1.59080026552940
O           0.79182485292256   -1.62080002100994    0.19891559609645
O           1.06077044158470   -3.07319466397249    2.14508323236358
O           0.91656636646688   -0.66855985142281    2.42688836730292
O          -1.03842301841332   -1.95024479449641    1.75786863658703
H          -1.48866065063161   -1.23552154331022    1.21076261127073
H           1.08421412045360    0.15714214303418    1.86728759412895
O          -0.82503979272082    1.81658250194980   -0.04394546319839
H          -1.21798925738512    2.68581557522357   -0.08049352536413
O           1.32974784803091    1.52121912727609    1.17510828508925
H           1.39211451770392    2.17546638608668    1.87193371319989
H           0.42358563756312    1.68616929272150    0.68541796284841
O          -2.29412086073186   -0.15916247841650    0.41225895713384
H          -3.02844757488417    0.12099585889017    0.95953354614409
H          -1.70764156613601    0.67975089619571    0.24650923358471
O           2.43272450166847    0.17185090042075   -0.98921712784765
H           2.38146083384986    0.78867161750492   -0.24537340557620
H           2.03828870197687   -0.64730333254390   -0.64085677486935
O          -1.09944275130652   -1.53166803887845   -1.71896598417401
H          -0.38226170551058   -1.77606290622608   -1.10417951861039
H          -1.81696207711276   -1.23089194394236   -1.14565220542094
N           0.11350450428654    0.81207085367694   -2.16262294134573
H          -0.33568007099833    1.35092185267730   -1.28324222347796
H           0.05061086626889    1.32507279444412   -3.03235926640264
H           1.10762577753679    0.61231216725887   -1.89197109570681
H          -0.38604736676681   -0.10878440691514   -2.20948847928499
