    26
        -50.46081847  Gyration_radius:  2.68864436084 Dipole_moment: 2.338
 S           0.06756499304460    1.91076007611839   -1.88417173500313
O          -1.35448354518686    1.77387017655616   -1.62400843424117
O           0.75818475521719    2.62689083985666   -0.81776001629763
O           0.70669856664456    0.64477467543415   -2.19379558517808
O           0.20799265957391    2.80475283475958   -3.19109759096833
H          -0.20119890537393    3.62539026286207   -2.93257779030735
H           0.10657951632581   -0.79783200059334   -2.04855343016641
O          -0.24675115980078   -1.71322891527985   -1.86212436748291
H          -0.29922890942019   -2.15205185101330   -2.71199789950298
O           1.32732148471654   -2.02203890694759    0.30555344804680
H           2.03775131691481   -2.64396895461111    0.14682046585076
H           0.77695205269860   -2.00610710256226   -0.50593052325429
O          -1.70929367292125   -0.26244436869615   -0.03329929002419
H          -1.45648711379957   -0.96240689235738   -0.65599265805609
H          -1.79422074942761    0.53920156011446   -0.60304393660234
O          -0.73052255929467   -1.75083497594867    2.23931971234765
H          -1.38176102479252   -1.36711881321627    1.63834668115252
H           0.01007616357873   -2.02806845974490    1.67867119181276
O           0.32331251188288    0.36785272409513    3.51800597882925
H          -0.32929435870256    0.80628316912950    4.06487231662995
H          -0.06854710048235   -0.49335413493643    3.24752961974214
N           0.67169060118461    0.63344868365532    0.85538302836537
H          -0.29121268645384    0.29278387780882    0.59320656464717
H           0.69475078820591    0.78732919770468    1.88451875023907
H           1.32527630568522   -0.11830877831342    0.60966636020133
H           0.84885005400884    1.50442606235855    0.28245914172763
