    26
        -50.44570902  Gyration_radius:  2.50807096523 Dipole_moment: 4.665
 S          -0.37244347679883   -1.77515362979900   -1.67401134557556
O           0.42303096730530   -0.83690351600402   -2.43235629967808
O          -0.57149469949090   -3.05760249199007   -2.23373287395998
O           0.25760214996120   -1.87681483671703   -0.25547686531501
O          -1.75751644055431   -1.13385494049321   -1.39110999122612
H          -1.71894215777492   -0.49848926278899   -0.61646305524753
H           0.98285825485736   -1.16142314245089   -0.21376143056006
O          -1.75160554291935    0.40104841063835    0.68226978369822
H          -2.65953051768730    0.52414376721591    0.96311947792881
O          -0.34515400965430    1.71703700608928   -2.54484834066694
H          -1.12372837501080    1.78265134548538   -3.09842649432646
H          -0.04611361905530    0.78750252736309   -2.60359599939117
O           1.77176644453349    0.89184108301773    2.37465292645997
H           2.36103457692986    0.45307964045263    1.75321364479352
H           1.38859518278487    1.63078255864211    1.88882736703021
O           0.35342842869665    2.02715399684550    0.04278687424885
H          -0.45151389116012    1.58577367223346    0.36372802504973
H           0.16440088229903    2.21363733283970   -0.89456006401565
O           1.97250493881193   -0.01160295404867   -0.38266628733921
H           1.42589803645568    0.80506295747514   -0.21304445611983
H           2.01963741897108   -0.09053490644242   -1.34341982215216
N          -0.44782125024139   -0.92792686745375    2.46008479391853
H          -0.83804272875946   -1.21450575784018    3.34788743103005
H          -1.27471687480975   -0.14714568050782    1.42104543137035
H           0.36789752112609   -0.33704294283816    2.63882430999180
H          -0.13003119881075   -1.75071336892330    1.96103326005473
