    26
        -50.46013287  Gyration_radius:  2.49330313481 Dipole_moment: 4.667
 S          -0.14448127648942   -1.34085420156279    1.18882437133699
O          -1.44351574765351   -1.61883894148238    0.60770917391564
O           0.33896482075538   -2.26888995297641    2.16203577169640
O           0.87237675161915   -1.42246735925714   -0.06726063097111
O          -0.04982147179207    0.05999716596423    1.62569949548078
H          -1.47129990918001    0.80074545412286    1.31292031661537
H           1.72002013830824   -1.31651512378386    0.38942976609330
O          -2.36714378009863    0.97225926462967    0.93153258149294
H          -2.75135924792515    0.08756355437569    0.91614537533569
O           2.91652548884492    1.73623225234024    0.20066342124561
H           2.83229844579212    1.07683000862426    0.90509756054749
H           3.82429735427040    1.69509055132149   -0.10518762946457
O           2.47060618127105   -0.45938230603038    1.88945254010453
H           2.53141445150695   -1.16958912816412    2.53405346786820
H           1.53999331031756   -0.14501518728170    1.96111059387800
O           1.00266678503048    0.90487785809119   -1.54701788544291
H           1.62079144364451    1.37141020903270   -0.95002923165572
H           0.95761223096702   -0.00318859909010   -1.20316222949684
O          -2.00675404354447   -1.38752352544075   -1.92999053799174
H          -2.74012369960789   -1.98632921986263   -2.07638134314041
H          -1.70703468675987   -1.55274563381391   -1.00197374487269
N          -1.60275848451758    1.22163430846164   -1.56675422957983
H          -0.53854268869888    1.25077888891364   -1.56561993150266
H          -1.86170424138013    0.27089450028170   -1.91775027040059
H          -1.94724959924798    1.26307628923156   -0.55454947696263
H          -1.99577849543610    1.95994885335427   -2.13899727411473
