    26
        -50.46807853  Gyration_radius:  2.38068844137 Dipole_moment: 4.560
 S           1.15669686613913    0.76620594116453   -0.12560361256345
O           1.54715257086350   -0.55820309846874    0.34042538717950
O          -0.13776124906728    1.16927149571535    0.43349678548845
O           2.20923638250990    1.79322772539100    0.38493390864734
O           1.11435670957746    0.83732480924602   -1.57468462081584
O          -0.72253980804818   -1.90235055335225    0.42836475882099
H          -1.10080147258156   -1.49999885085000    1.22764721495874
H           0.20975650788808   -1.60077129869668    0.43690000487692
O           1.39871544736046   -1.80156798460420   -2.35532494047069
H           1.72128715001840   -2.21394003730534   -1.55101277746940
H           1.59390175691484   -0.86048961581852   -2.24978644698035
O          -2.37372088280078    1.58423305318845   -0.94029303804307
H          -1.58678449492227    1.53385219637685   -0.35399173121086
H          -2.31813824591680    2.43257194539468   -1.38293352338937
O          -1.11263598206319   -0.08452881286951    2.50992948006313
H          -1.93550856002874    0.33579443414027    2.76458069769627
H          -0.75521830197043    0.44250831127074    1.75930611188403
O           1.76991164619005    0.59858383403848    2.72919226670793
H           0.87831665944022    0.51073793297831    3.08811548618057
H           1.85218452273778   -0.12569433226216    2.08848685735705
H           2.21708701588286    1.63401787241941    1.35002639446679
N          -1.14776740577516   -0.60842248526129   -1.82706068722681
H          -1.89575094023348    0.10541760320065   -1.69777622605878
H          -1.25617023192601   -1.19042343129704   -2.65293419396465
H          -0.24169935361509   -0.08152012182376   -1.88371265031717
H          -1.08410628655671   -1.21583650191098   -0.94629091580727
